  0
SECTION
  2
ENTITIES
999
DXF created from EnergyPlus
999
Program Version,EnergyPlus, Version 9.4.0-eabe692fc2, YMD=2020.12.03 19:40
999
Polygon Action,ThickPolyline
999
Color Scheme,Default
999
Text - True North
  0
TEXT
  8
1
  6
Continuous
 62
  3
 10
      -11.00000
 20
        2.38880
 30
        0.10000
 40
 .25
  1
True North
 41
 0.0
  7
MONOTXT
210
0.0
220
0.0
230
1.0
999
Text - Building Title
  0
TEXT
  8
1
  6
Continuous
 62
  3
 10
      -14.00000
 20
       -1.61120
 30
        0.10000
 40
 .4
  1
Building - Large Hospital TSD Low-Energy Model
 41
 0.0
  7
MONOTXT
210
0.0
220
0.0
230
1.0
999
North Arrow Stem
  0
3DFACE
  8
1
 62
  3
 10
      -10.00000
 20
        2.38880
 30
        0.10000
 11
      -10.00000
 21
        2.38880
 31
        0.00000
 12
      -10.00000
 22
       -0.61120
 32
        0.00000
 13
      -10.00000
 23
       -0.61120
 33
        0.10000
999
North Arrow Head 1
  0
3DFACE
  8
1
 62
  3
 10
      -10.00000
 20
        2.38880
 30
        0.10000
 11
      -10.00000
 21
        2.38880
 31
        0.00000
 12
      -10.50000
 22
        1.52277
 32
        0.00000
 13
      -10.50000
 23
        1.52277
 33
        0.10000
999
North Arrow Head 2
  0
3DFACE
  8
1
 62
  3
 10
      -10.00000
 20
        2.38880
 30
        0.10000
 11
      -10.00000
 21
        2.38880
 31
        0.00000
 12
       -9.50000
 22
        1.52277
 32
        0.00000
 13
       -9.50000
 23
        1.52277
 33
        0.10000
999
North Arrow Side 1
  0
3DFACE
  8
1
 62
  3
 10
      -10.50000
 20
        3.88880
 30
        0.10000
 11
      -10.50000
 21
        3.88880
 31
        0.00000
 12
      -10.50000
 22
        2.88880
 32
        0.00000
 13
      -10.50000
 23
        2.88880
 33
        0.10000
999
North Arrow Side 2
  0
3DFACE
  8
1
 62
  3
 10
      -10.50000
 20
        3.88880
 30
        0.10000
 11
      -10.50000
 21
        3.88880
 31
        0.00000
 12
       -9.50000
 22
        2.88880
 32
        0.00000
 13
       -9.50000
 23
        2.88880
 33
        0.10000
999
North Arrow Side 3
  0
3DFACE
  8
1
 62
  3
 10
       -9.50000
 20
        3.88880
 30
        0.10000
 11
       -9.50000
 21
        3.88880
 31
        0.00000
 12
       -9.50000
 22
        2.88880
 32
        0.00000
 13
       -9.50000
 23
        2.88880
 33
        0.10000
999
Zone Names
999
Zone=1:FLOOR_1_CAFE
999
Zone=2:FLOOR_1_CLEAN
999
Zone=3:FLOOR_1_CONFERENCE
999
Zone=4:FLOOR_1_DINING
999
Zone=5:FLOOR_1_ELEVATOR
999
Zone=6:FLOOR_1_EXAM
999
Zone=7:FLOOR_1_FOOD_STORAGE
999
Zone=8:FLOOR_1_GAS_STORAGE
999
Zone=9:FLOOR_1_IMAGING
999
Zone=10:FLOOR_1_KITCHEN
999
Zone=11:FLOOR_1_LAB_1
999
Zone=12:FLOOR_1_LAB_2
999
Zone=13:FLOOR_1_LAUNDRY
999
Zone=14:FLOOR_1_LOBBY
999
Zone=15:FLOOR_1_LOUNGE
999
Zone=16:FLOOR_1_MECH_1
999
Zone=17:FLOOR_1_MECH_2
999
Zone=18:FLOOR_1_OFFICE_1
999
Zone=19:FLOOR_1_OFFICE_2
999
Zone=20:FLOOR_1_OFFICE_3
999
Zone=21:FLOOR_1_OFFICE_3_PERIMETER_1
999
Zone=22:FLOOR_1_OFFICE_3_PERIMETER_2
999
Zone=23:FLOOR_1_OFFICE_3_PERIMETER_3
999
Zone=24:FLOOR_1_PATIENT
999
Zone=25:FLOOR_1_PHARMACY
999
Zone=26:FLOOR_1_PHYSICAL_THERAPY
999
Zone=27:FLOOR_1_RECEIVING
999
Zone=28:FLOOR_1_RECEPTION
999
Zone=29:FLOOR_1_SOIL
999
Zone=30:FLOOR_1_STORAGE
999
Zone=31:FLOOR_1_WAITING
999
Zone=32:FLOOR_2_CHAPEL
999
Zone=33:FLOOR_2_CLEAN_1
999
Zone=34:FLOOR_2_CLEAN_2
999
Zone=35:FLOOR_2_CORRIDOR
999
Zone=36:FLOOR_2_ELEVATOR
999
Zone=37:FLOOR_2_EXAM_1
999
Zone=38:FLOOR_2_EXAM_2
999
Zone=39:FLOOR_2_EXAM_3
999
Zone=40:FLOOR_2_EXAM_4
999
Zone=41:FLOOR_2_GIFT_SHOP
999
Zone=42:FLOOR_2_IMAGING_1
999
Zone=43:FLOOR_2_IMAGING_2
999
Zone=44:FLOOR_2_IMAGING_3
999
Zone=45:FLOOR_2_LAB_1
999
Zone=46:FLOOR_2_LAB_2
999
Zone=47:FLOOR_2_LOCKERS
999
Zone=48:FLOOR_2_LOUNGE_1
999
Zone=49:FLOOR_2_LOUNGE_2
999
Zone=50:FLOOR_2_NURSE_STATION_1
999
Zone=51:FLOOR_2_NURSE_STATION_2
999
Zone=52:FLOOR_2_OFFICE_1
999
Zone=53:FLOOR_2_OFFICE_2
999
Zone=54:FLOOR_2_OFFICE_3
999
Zone=55:FLOOR_2_OFFICE_4
999
Zone=56:FLOOR_2_OPERATING
999
Zone=57:FLOOR_2_PACU
999
Zone=58:FLOOR_2_PATIENT_1
999
Zone=59:FLOOR_2_PATIENT_2
999
Zone=60:FLOOR_2_PROCEDURE_1
999
Zone=61:FLOOR_2_PROCEDURE_2
999
Zone=62:FLOOR_2_RECEPTION
999
Zone=63:FLOOR_2_RESTROOM_1
999
Zone=64:FLOOR_2_RESTROOM_2
999
Zone=65:FLOOR_2_SOIL_1
999
Zone=66:FLOOR_2_SOIL_2
999
Zone=67:FLOOR_2_STERILIZING
999
Zone=68:FLOOR_2_STORAGE_1
999
Zone=69:FLOOR_2_STORAGE_2
999
Zone=70:FLOOR_2_TRAUMA
999
Zone=71:FLOOR_2_TRIAGE
999
Zone=72:FLOOR_2_WAITING
999
Zone=73:FLOOR_3_CLEAN
999
Zone=74:FLOOR_3_ELEVATOR
999
Zone=75:FLOOR_3_EXAM
999
Zone=76:FLOOR_3_ICU
999
Zone=77:FLOOR_3_NURSE_STATION_1
999
Zone=78:FLOOR_3_NURSE_STATION_2
999
Zone=79:FLOOR_3_NURSERY
999
Zone=80:FLOOR_3_OFFICE
999
Zone=81:FLOOR_3_OPERATING
999
Zone=82:FLOOR_3_PATIENT_1
999
Zone=83:FLOOR_3_PATIENT_2
999
Zone=84:FLOOR_3_PATIENT_3
999
Zone=85:FLOOR_3_PATIENT_4
999
Zone=86:FLOOR_3_PATIENT_CORRIDOR_1
999
Zone=87:FLOOR_3_PATIENT_CORRIDOR_2
999
Zone=88:FLOOR_3_PROCEDURE
999
Zone=89:FLOOR_3_SOIL
999
Zone=90:FLOOR_3_SUPPLY
999
Zone=91:FLOOR_3_TRIAGE
999
Zone=92:FLOOR_3_WAITING
999
Zone=93:FLOOR_4-6_CLEAN
999
Zone=94:FLOOR_4-6_ELEVATOR
999
Zone=95:FLOOR_4-6_NURSE_STATION
999
Zone=96:FLOOR_4-6_OFFICE
999
Zone=97:FLOOR_4-6_PATIENT_1
999
Zone=98:FLOOR_4-6_PATIENT_2
999
Zone=99:FLOOR_4-6_PATIENT_3
999
Zone=100:FLOOR_4-6_PATIENT_4
999
Zone=101:FLOOR_4-6_PATIENT_CORRIDOR_1
999
Zone=102:FLOOR_4-6_PATIENT_CORRIDOR_2
999
Zone=103:FLOOR_4-6_SOIL
999
Zone=104:FLOOR_4-6_SUPPLY
999
Zone=105:FLOOR_7_CLEAN
999
Zone=106:FLOOR_7_ELEVATOR
999
Zone=107:FLOOR_7_NURSE_STATION
999
Zone=108:FLOOR_7_OFFICE
999
Zone=109:FLOOR_7_PATIENT_1
999
Zone=110:FLOOR_7_PATIENT_2
999
Zone=111:FLOOR_7_PATIENT_3
999
Zone=112:FLOOR_7_PATIENT_4
999
Zone=113:FLOOR_7_PATIENT_CORRIDOR_1
999
Zone=114:FLOOR_7_PATIENT_CORRIDOR_2
999
Zone=115:FLOOR_7_SOIL
999
Zone=116:FLOOR_7_SUPPLY
999
Zone=117:MOB_FLOOR_1_CORE
999
Zone=118:MOB_FLOOR_1_PERIMETER_1
999
Zone=119:MOB_FLOOR_1_PERIMETER_2
999
Zone=120:MOB_FLOOR_1_PERIMETER_3
999
Zone=121:MOB_FLOOR_2-4_CORE
999
Zone=122:MOB_FLOOR_2-4_PERIMETER_1
999
Zone=123:MOB_FLOOR_2-4_PERIMETER_2
999
Zone=124:MOB_FLOOR_2-4_PERIMETER_3
999
Zone=125:MOB_FLOOR_2-4_PERIMETER_4
999
Zone=126:MOB_FLOOR_5_CORE
999
Zone=127:MOB_FLOOR_5_PERIMETER_1
999
Zone=128:MOB_FLOOR_5_PERIMETER_2
999
Zone=129:MOB_FLOOR_5_PERIMETER_3
999
Zone=130:MOB_FLOOR_5_PERIMETER_4
999
FLOOR 1 CAFE:25C85A
  0
3DFACE
  8
FLOOR_1_CAFE
 62
 43
 10
      100.58400
 20
       82.90560
 30
        3.04800
 11
      100.58400
 21
       82.90560
 31
        0.00000
 12
       85.64880
 22
       82.90560
 32
        0.00000
 13
       85.64880
 23
       82.90560
 33
        3.04800
999
FLOOR 1 CAFE:22EE43
  0
3DFACE
  8
FLOOR_1_CAFE
 62
 43
 10
       85.64880
 20
       57.91200
 30
        3.04800
 11
       85.64880
 21
       57.91200
 31
        0.00000
 12
      100.58400
 22
       57.91200
 32
        0.00000
 13
      100.58400
 23
       57.91200
 33
        3.04800
999
FLOOR 1 CAFE:D30CFB
  0
3DFACE
  8
FLOOR_1_CAFE
 62
 43
 10
       85.64880
 20
       82.90560
 30
        3.04800
 11
       85.64880
 21
       82.90560
 31
        0.00000
 12
       85.64880
 22
       57.91200
 32
        0.00000
 13
       85.64880
 23
       57.91200
 33
        3.04800
999
FLOOR 1 CAFE:63D572
  0
3DFACE
  8
FLOOR_1_CAFE
 62
 43
 10
      100.58400
 20
       57.91200
 30
        3.04800
 11
      100.58400
 21
       57.91200
 31
        0.00000
 12
      100.58400
 22
       82.90560
 32
        0.00000
 13
      100.58400
 23
       82.90560
 33
        3.04800
999
FLOOR 1 CAFE:FLOOR 1 CAFE SLAB
  0
3DFACE
  8
FLOOR_1_CAFE
 62
  8
 10
      100.58400
 20
       82.90560
 30
        0.00000
 11
      100.58400
 21
       57.91200
 31
        0.00000
 12
       85.64880
 22
       57.91200
 32
        0.00000
 13
       85.64880
 23
       82.90560
 33
        0.00000
999
FLOOR 1 CAFE:FCF93A
  0
3DFACE
  8
FLOOR_1_CAFE
 62
 15
 10
       85.64880
 20
       82.90560
 30
        3.04800
 11
       85.64880
 21
       57.91200
 31
        3.04800
 12
      100.58400
 22
       57.91200
 32
        3.04800
 13
      100.58400
 23
       82.90560
 33
        3.04800
999
FLOOR 1 CLEAN:3C19D3
  0
3DFACE
  8
FLOOR_1_CLEAN
 62
 43
 10
       27.43200
 20
       76.20000
 30
        3.04800
 11
       27.43200
 21
       76.20000
 31
        0.00000
 12
       27.43200
 22
       82.29600
 32
        0.00000
 13
       27.43200
 23
       82.29600
 33
        3.04800
999
FLOOR 1 CLEAN:90A1BA
  0
3DFACE
  8
FLOOR_1_CLEAN
 62
 43
 10
       20.11680
 20
       76.20000
 30
        3.04800
 11
       20.11680
 21
       76.20000
 31
        0.00000
 12
       27.43200
 22
       76.20000
 32
        0.00000
 13
       27.43200
 23
       76.20000
 33
        3.04800
999
FLOOR 1 CLEAN:A6BE10
  0
3DFACE
  8
FLOOR_1_CLEAN
 62
 43
 10
       20.11680
 20
       82.29600
 30
        3.04800
 11
       20.11680
 21
       82.29600
 31
        0.00000
 12
       20.11680
 22
       76.20000
 32
        0.00000
 13
       20.11680
 23
       76.20000
 33
        3.04800
999
FLOOR 1 CLEAN:F333AF
  0
3DFACE
  8
FLOOR_1_CLEAN
 62
 43
 10
       27.43200
 20
       82.29600
 30
        3.04800
 11
       27.43200
 21
       82.29600
 31
        0.00000
 12
       20.11680
 22
       82.29600
 32
        0.00000
 13
       20.11680
 23
       82.29600
 33
        3.04800
999
FLOOR 1 CLEAN:FLOOR 1 CLEAN SLAB
  0
3DFACE
  8
FLOOR_1_CLEAN
 62
  8
 10
       27.43200
 20
       82.29600
 30
        0.00000
 11
       27.43200
 21
       76.20000
 31
        0.00000
 12
       20.11680
 22
       76.20000
 32
        0.00000
 13
       20.11680
 23
       82.29600
 33
        0.00000
999
FLOOR 1 CLEAN:E43A58
  0
3DFACE
  8
FLOOR_1_CLEAN
 62
 15
 10
       20.11680
 20
       82.29600
 30
        3.04800
 11
       20.11680
 21
       76.20000
 31
        3.04800
 12
       27.43200
 22
       76.20000
 32
        3.04800
 13
       27.43200
 23
       82.29600
 33
        3.04800
999
FLOOR 1 CONFERENCE:FLOOR 1 CONFERENCE EXT WALL
  0
3DFACE
  8
FLOOR_1_CONFERENCE
 62
 43
 10
       38.10000
 20
       48.76800
 30
        3.04800
 11
       38.10000
 21
       48.76800
 31
        0.00000
 12
      100.58400
 22
       48.76800
 32
        0.00000
 13
      100.58400
 23
       48.76800
 33
        3.04800
999
FLOOR 1 CONFERENCE:FLOOR 1 CONFERENCE EXT WALL_WINDOW_1
  0
3DFACE
  8
FLOOR_1_CONFERENCE
 62
143
 10
       38.15000
 20
       48.76800
 30
        2.32120
 11
       38.15000
 21
       48.76800
 31
        1.10000
 12
      100.53400
 22
       48.76800
 32
        1.10000
 13
      100.53400
 23
       48.76800
 33
        2.32120
999
FLOOR 1 CONFERENCE:6E4109
  0
3DFACE
  8
FLOOR_1_CONFERENCE
 62
 43
 10
      100.58400
 20
       57.91200
 30
        3.04800
 11
      100.58400
 21
       57.91200
 31
        0.00000
 12
       38.10000
 22
       57.91200
 32
        0.00000
 13
       38.10000
 23
       57.91200
 33
        3.04800
999
FLOOR 1 CONFERENCE:C66B84
  0
3DFACE
  8
FLOOR_1_CONFERENCE
 62
 43
 10
      100.58400
 20
       48.76800
 30
        3.04800
 11
      100.58400
 21
       48.76800
 31
        0.00000
 12
      100.58400
 22
       57.91200
 32
        0.00000
 13
      100.58400
 23
       57.91200
 33
        3.04800
999
FLOOR 1 CONFERENCE:7490G7
  0
3DFACE
  8
FLOOR_1_CONFERENCE
 62
 43
 10
       38.10000
 20
       57.91200
 30
        3.04800
 11
       38.10000
 21
       57.91200
 31
        0.00000
 12
       38.10000
 22
       48.76800
 32
        0.00000
 13
       38.10000
 23
       48.76800
 33
        3.04800
999
FLOOR 1 CONFERENCE:FLOOR 1 CONFERENCE SLAB
  0
3DFACE
  8
FLOOR_1_CONFERENCE
 62
  8
 10
      100.58400
 20
       57.91200
 30
        0.00000
 11
      100.58400
 21
       48.76800
 31
        0.00000
 12
       38.10000
 22
       48.76800
 32
        0.00000
 13
       38.10000
 23
       57.91200
 33
        0.00000
999
FLOOR 1 CONFERENCE:FLOOR 1 CONFERENCE ROOF
  0
3DFACE
  8
FLOOR_1_CONFERENCE
 62
 15
 10
       38.10000
 20
       57.91200
 30
        3.04800
 11
       38.10000
 21
       48.76800
 31
        3.04800
 12
       52.42560
 22
       48.76800
 32
        3.04800
 13
       52.42560
 23
       57.91200
 33
        3.04800
999
FLOOR 1 CONFERENCE:7C0943
  0
3DFACE
  8
FLOOR_1_CONFERENCE
 62
 15
 10
       52.42560
 20
       57.91200
 30
        3.04800
 11
       52.42560
 21
       48.76800
 31
        3.04800
 12
      100.58400
 22
       48.76800
 32
        3.04800
 13
      100.58400
 23
       57.91200
 33
        3.04800
999
FLOOR 1 CONFERENCE:FLOOR 1 CONFERENCE EXT WALL:SHADING_SOUTH_1
  0
3DFACE
  8
FLOOR_1_CONFERENCE
 62
 13
 10
       38.15000
 20
       48.15740
 30
        2.32120
 11
       38.15000
 21
       48.76800
 31
        2.32120
 12
      100.53400
 22
       48.76800
 32
        2.32120
 13
      100.53400
 23
       48.15740
 33
        2.32120
999
FLOOR 1 CONFERENCE:Mir-FLOOR 1 CONFERENCE EXT WALL:SHADING_SOUTH_1
  0
3DFACE
  8
FLOOR_1_CONFERENCE
 62
 13
 10
      100.53400
 20
       48.15740
 30
        2.32120
 11
      100.53400
 21
       48.76800
 31
        2.32120
 12
       38.15000
 22
       48.76800
 32
        2.32120
 13
       38.15000
 23
       48.15740
 33
        2.32120
999
FLOOR 1 DINING:8FA16A
  0
3DFACE
  8
FLOOR_1_DINING
 62
 43
 10
      100.58400
 20
       57.91200
 30
        3.04800
 11
      100.58400
 21
       57.91200
 31
        0.00000
 12
      118.87200
 22
       57.91200
 32
        0.00000
 13
      118.87200
 23
       57.91200
 33
        3.04800
999
FLOOR 1 DINING:9D438F
  0
3DFACE
  8
FLOOR_1_DINING
 62
 43
 10
      118.87200
 20
       57.91200
 30
        3.04800
 11
      118.87200
 21
       57.91200
 31
        0.00000
 12
      118.87200
 22
       82.90560
 32
        0.00000
 13
      118.87200
 23
       82.90560
 33
        3.04800
999
FLOOR 1 DINING:A66087
  0
3DFACE
  8
FLOOR_1_DINING
 62
 43
 10
      100.58400
 20
       82.90560
 30
        3.04800
 11
      100.58400
 21
       82.90560
 31
        0.00000
 12
      100.58400
 22
       57.91200
 32
        0.00000
 13
      100.58400
 23
       57.91200
 33
        3.04800
999
FLOOR 1 DINING:FLOOR 1 DINING EXT WALL
  0
3DFACE
  8
FLOOR_1_DINING
 62
 43
 10
      118.87200
 20
       82.90560
 30
        3.04800
 11
      118.87200
 21
       82.90560
 31
        0.00000
 12
      100.58400
 22
       82.90560
 32
        0.00000
 13
      100.58400
 23
       82.90560
 33
        3.04800
999
FLOOR 1 DINING:FLOOR 1 DINING EXT WALL_WINDOW_1
  0
3DFACE
  8
FLOOR_1_DINING
 62
143
 10
      118.82200
 20
       82.90560
 30
        2.32590
 11
      118.82200
 21
       82.90560
 31
        1.10000
 12
      100.63400
 22
       82.90560
 32
        1.10000
 13
      100.63400
 23
       82.90560
 33
        2.32590
999
FLOOR 1 DINING:FLOOR 1 DINING SLAB
  0
3DFACE
  8
FLOOR_1_DINING
 62
  8
 10
      118.87200
 20
       82.90560
 30
        0.00000
 11
      118.87200
 21
       57.91200
 31
        0.00000
 12
      100.58400
 22
       57.91200
 32
        0.00000
 13
      100.58400
 23
       82.90560
 33
        0.00000
999
FLOOR 1 DINING:FA9076
  0
3DFACE
  8
FLOOR_1_DINING
 62
 15
 10
      100.58400
 20
       82.90560
 30
        3.04800
 11
      100.58400
 21
       57.91200
 31
        3.04800
 12
      118.87200
 22
       57.91200
 32
        3.04800
 13
      118.87200
 23
       82.90560
 33
        3.04800
999
FLOOR 1 ELEVATOR:36CF62
  0
3DFACE
  8
FLOOR_1_ELEVATOR
 62
 43
 10
      118.87200
 20
       57.91200
 30
        3.04800
 11
      118.87200
 21
       57.91200
 31
        0.00000
 12
      100.58400
 22
       57.91200
 32
        0.00000
 13
      100.58400
 23
       57.91200
 33
        3.04800
999
FLOOR 1 ELEVATOR:FLOOR 1 ELEVATOR EXT WALL
  0
3DFACE
  8
FLOOR_1_ELEVATOR
 62
 43
 10
      100.58400
 20
       48.76800
 30
        3.04800
 11
      100.58400
 21
       48.76800
 31
        0.00000
 12
      118.87200
 22
       48.76800
 32
        0.00000
 13
      118.87200
 23
       48.76800
 33
        3.04800
999
FLOOR 1 ELEVATOR:FLOOR 1 ELEVATOR EXT WALL_WINDOW_1
  0
3DFACE
  8
FLOOR_1_ELEVATOR
 62
143
 10
      100.63400
 20
       48.76800
 30
        2.32590
 11
      100.63400
 21
       48.76800
 31
        1.10000
 12
      118.82200
 22
       48.76800
 32
        1.10000
 13
      118.82200
 23
       48.76800
 33
        2.32590
999
FLOOR 1 ELEVATOR:5DE4DD
  0
3DFACE
  8
FLOOR_1_ELEVATOR
 62
 43
 10
      100.58400
 20
       57.91200
 30
        3.04800
 11
      100.58400
 21
       57.91200
 31
        0.00000
 12
      100.58400
 22
       48.76800
 32
        0.00000
 13
      100.58400
 23
       48.76800
 33
        3.04800
999
FLOOR 1 ELEVATOR:40298D
  0
3DFACE
  8
FLOOR_1_ELEVATOR
 62
 43
 10
      118.87200
 20
       48.76800
 30
        3.04800
 11
      118.87200
 21
       48.76800
 31
        0.00000
 12
      118.87200
 22
       57.91200
 32
        0.00000
 13
      118.87200
 23
       57.91200
 33
        3.04800
999
FLOOR 1 ELEVATOR:FLOOR 1 ELEVATOR SLAB
  0
3DFACE
  8
FLOOR_1_ELEVATOR
 62
  8
 10
      118.87200
 20
       57.91200
 30
        0.00000
 11
      118.87200
 21
       48.76800
 31
        0.00000
 12
      100.58400
 22
       48.76800
 32
        0.00000
 13
      100.58400
 23
       57.91200
 33
        0.00000
999
FLOOR 1 ELEVATOR:BC7B6D
  0
3DFACE
  8
FLOOR_1_ELEVATOR
 62
 15
 10
      100.58400
 20
       57.91200
 30
        3.04800
 11
      100.58400
 21
       48.76800
 31
        3.04800
 12
      118.87200
 22
       48.76800
 32
        3.04800
 13
      118.87200
 23
       57.91200
 33
        3.04800
999
FLOOR 1 ELEVATOR:FLOOR 1 ELEVATOR EXT WALL:SHADING_SOUTH_1
  0
3DFACE
  8
FLOOR_1_ELEVATOR
 62
 13
 10
      100.63400
 20
       48.15500
 30
        2.32590
 11
      100.63400
 21
       48.76800
 31
        2.32590
 12
      118.82200
 22
       48.76800
 32
        2.32590
 13
      118.82200
 23
       48.15500
 33
        2.32590
999
FLOOR 1 ELEVATOR:Mir-FLOOR 1 ELEVATOR EXT WALL:SHADING_SOUTH_1
  0
3DFACE
  8
FLOOR_1_ELEVATOR
 62
 13
 10
      118.82200
 20
       48.15500
 30
        2.32590
 11
      118.82200
 21
       48.76800
 31
        2.32590
 12
      100.63400
 22
       48.76800
 32
        2.32590
 13
      100.63400
 23
       48.15500
 33
        2.32590
999
FLOOR 1 EXAM:FLOOR 1 EXAM EXT WALL
  0
3DFACE
  8
FLOOR_1_EXAM
 62
 43
 10
        0.00000
 20
       82.29600
 30
        3.04800
 11
        0.00000
 21
       82.29600
 31
        0.00000
 12
        0.00000
 22
       70.10400
 32
        0.00000
 13
        0.00000
 23
       70.10400
 33
        3.04800
999
FLOOR 1 EXAM:FLOOR 1 EXAM EXT WALL_WINDOW_1
  0
3DFACE
  8
FLOOR_1_EXAM
 62
143
 10
        0.00000
 20
       82.24600
 30
        2.32930
 11
        0.00000
 21
       82.24600
 31
        1.10000
 12
        0.00000
 22
       70.15400
 32
        1.10000
 13
        0.00000
 23
       70.15400
 33
        2.32930
999
FLOOR 1 EXAM:E94E1C
  0
3DFACE
  8
FLOOR_1_EXAM
 62
 43
 10
       20.11680
 20
       82.29600
 30
        3.04800
 11
       20.11680
 21
       82.29600
 31
        0.00000
 12
        0.00000
 22
       82.29600
 32
        0.00000
 13
        0.00000
 23
       82.29600
 33
        3.04800
999
FLOOR 1 EXAM:6AD5F0
  0
3DFACE
  8
FLOOR_1_EXAM
 62
 43
 10
       20.11680
 20
       70.10400
 30
        3.04800
 11
       20.11680
 21
       70.10400
 31
        0.00000
 12
       20.11680
 22
       82.29600
 32
        0.00000
 13
       20.11680
 23
       82.29600
 33
        3.04800
999
FLOOR 1 EXAM:C83586
  0
3DFACE
  8
FLOOR_1_EXAM
 62
 43
 10
        0.00000
 20
       70.10400
 30
        3.04800
 11
        0.00000
 21
       70.10400
 31
        0.00000
 12
       20.11680
 22
       70.10400
 32
        0.00000
 13
       20.11680
 23
       70.10400
 33
        3.04800
999
FLOOR 1 EXAM:FLOOR 1 EXAM SLAB
  0
3DFACE
  8
FLOOR_1_EXAM
 62
  8
 10
       20.11680
 20
       82.29600
 30
        0.00000
 11
       20.11680
 21
       70.10400
 31
        0.00000
 12
        0.00000
 22
       70.10400
 32
        0.00000
 13
        0.00000
 23
       82.29600
 33
        0.00000
999
FLOOR 1 EXAM:3D0621
  0
3DFACE
  8
FLOOR_1_EXAM
 62
 15
 10
        0.00000
 20
       82.29600
 30
        3.04800
 11
        0.00000
 21
       70.10400
 31
        3.04800
 12
       20.11680
 22
       70.10400
 32
        3.04800
 13
       20.11680
 23
       82.29600
 33
        3.04800
999
FLOOR 1 FOOD STORAGE:DF4522
  0
3DFACE
  8
FLOOR_1_FOOD_STORAGE
 62
 43
 10
       85.64880
 20
       57.91200
 30
        3.04800
 11
       85.64880
 21
       57.91200
 31
        0.00000
 12
       85.64880
 22
       70.40880
 32
        0.00000
 13
       85.64880
 23
       70.40880
 33
        3.04800
999
FLOOR 1 FOOD STORAGE:3D0377
  0
3DFACE
  8
FLOOR_1_FOOD_STORAGE
 62
 43
 10
       85.64880
 20
       70.40880
 30
        3.04800
 11
       85.64880
 21
       70.40880
 31
        0.00000
 12
       70.71360
 22
       70.40880
 32
        0.00000
 13
       70.71360
 23
       70.40880
 33
        3.04800
999
FLOOR 1 FOOD STORAGE:394654
  0
3DFACE
  8
FLOOR_1_FOOD_STORAGE
 62
 43
 10
       70.71360
 20
       57.91200
 30
        3.04800
 11
       70.71360
 21
       57.91200
 31
        0.00000
 12
       85.64880
 22
       57.91200
 32
        0.00000
 13
       85.64880
 23
       57.91200
 33
        3.04800
999
FLOOR 1 FOOD STORAGE:2756E6
  0
3DFACE
  8
FLOOR_1_FOOD_STORAGE
 62
 43
 10
       70.71360
 20
       70.40880
 30
        3.04800
 11
       70.71360
 21
       70.40880
 31
        0.00000
 12
       70.71360
 22
       57.91200
 32
        0.00000
 13
       70.71360
 23
       57.91200
 33
        3.04800
999
FLOOR 1 FOOD STORAGE:FLOOR 1 FOOD STORAGE SLAB
  0
3DFACE
  8
FLOOR_1_FOOD_STORAGE
 62
  8
 10
       85.64880
 20
       70.40880
 30
        0.00000
 11
       85.64880
 21
       57.91200
 31
        0.00000
 12
       70.71360
 22
       57.91200
 32
        0.00000
 13
       70.71360
 23
       70.40880
 33
        0.00000
999
FLOOR 1 FOOD STORAGE:14FA96
  0
3DFACE
  8
FLOOR_1_FOOD_STORAGE
 62
 15
 10
       70.71360
 20
       70.40880
 30
        3.04800
 11
       70.71360
 21
       57.91200
 31
        3.04800
 12
       85.64880
 22
       57.91200
 32
        3.04800
 13
       85.64880
 23
       70.40880
 33
        3.04800
999
FLOOR 1 GAS STORAGE:90A189
  0
3DFACE
  8
FLOOR_1_GAS_STORAGE
 62
 43
 10
       70.71360
 20
      115.82400
 30
        3.04800
 11
       70.71360
 21
      115.82400
 31
        0.00000
 12
       74.37120
 22
      115.82400
 32
        0.00000
 13
       74.37120
 23
      115.82400
 33
        3.04800
999
FLOOR 1 GAS STORAGE:3AE430
  0
3DFACE
  8
FLOOR_1_GAS_STORAGE
 62
 43
 10
       74.37120
 20
      115.82400
 30
        3.04800
 11
       74.37120
 21
      115.82400
 31
        0.00000
 12
       74.37120
 22
      131.67360
 32
        0.00000
 13
       74.37120
 23
      131.67360
 33
        3.04800
999
FLOOR 1 GAS STORAGE:FLOOR 1 GAS STORAGE EXT WALL
  0
3DFACE
  8
FLOOR_1_GAS_STORAGE
 62
 43
 10
       74.37120
 20
      131.67360
 30
        3.04800
 11
       74.37120
 21
      131.67360
 31
        0.00000
 12
       70.71360
 22
      131.67360
 32
        0.00000
 13
       70.71360
 23
      131.67360
 33
        3.04800
999
FLOOR 1 GAS STORAGE:FLOOR 1 GAS STORAGE EXT WALL_WINDOW_1
  0
3DFACE
  8
FLOOR_1_GAS_STORAGE
 62
143
 10
       74.32120
 20
      131.67360
 30
        2.35350
 11
       74.32120
 21
      131.67360
 31
        1.10000
 12
       70.76360
 22
      131.67360
 32
        1.10000
 13
       70.76360
 23
      131.67360
 33
        2.35350
999
FLOOR 1 GAS STORAGE:7AD66D
  0
3DFACE
  8
FLOOR_1_GAS_STORAGE
 62
 43
 10
       70.71360
 20
      131.67360
 30
        3.04800
 11
       70.71360
 21
      131.67360
 31
        0.00000
 12
       70.71360
 22
      115.82400
 32
        0.00000
 13
       70.71360
 23
      115.82400
 33
        3.04800
999
FLOOR 1 GAS STORAGE:FLOOR 1 GAS STORAGE SLAB
  0
3DFACE
  8
FLOOR_1_GAS_STORAGE
 62
  8
 10
       74.37120
 20
      131.67360
 30
        0.00000
 11
       74.37120
 21
      115.82400
 31
        0.00000
 12
       70.71360
 22
      115.82400
 32
        0.00000
 13
       70.71360
 23
      131.67360
 33
        0.00000
999
FLOOR 1 GAS STORAGE:4EBFE4
  0
3DFACE
  8
FLOOR_1_GAS_STORAGE
 62
 15
 10
       70.71360
 20
      131.67360
 30
        3.04800
 11
       70.71360
 21
      115.82400
 31
        3.04800
 12
       74.37120
 22
      115.82400
 32
        3.04800
 13
       74.37120
 23
      131.67360
 33
        3.04800
999
FLOOR 1 IMAGING:B864B2
  0
3DFACE
  8
FLOOR_1_IMAGING
 62
 43
 10
        4.26720
 20
       64.00800
 30
        3.04800
 11
        4.26720
 21
       64.00800
 31
        0.00000
 12
       27.43200
 22
       64.00800
 32
        0.00000
 13
       27.43200
 23
       64.00800
 33
        3.04800
999
FLOOR 1 IMAGING:A5503D
  0
3DFACE
  8
FLOOR_1_IMAGING
 62
 43
 10
        4.26720
 20
       70.10400
 30
        3.04800
 11
        4.26720
 21
       70.10400
 31
        0.00000
 12
        4.26720
 22
       64.00800
 32
        0.00000
 13
        4.26720
 23
       64.00800
 33
        3.04800
999
FLOOR 1 IMAGING:208A67
  0
3DFACE
  8
FLOOR_1_IMAGING
 62
 43
 10
       27.43200
 20
       70.10400
 30
        3.04800
 11
       27.43200
 21
       70.10400
 31
        0.00000
 12
        4.26720
 22
       70.10400
 32
        0.00000
 13
        4.26720
 23
       70.10400
 33
        3.04800
999
FLOOR 1 IMAGING:1AF1E6
  0
3DFACE
  8
FLOOR_1_IMAGING
 62
 43
 10
       27.43200
 20
       64.00800
 30
        3.04800
 11
       27.43200
 21
       64.00800
 31
        0.00000
 12
       27.43200
 22
       70.10400
 32
        0.00000
 13
       27.43200
 23
       70.10400
 33
        3.04800
999
FLOOR 1 IMAGING:FLOOR 1 IMAGING SLAB
  0
3DFACE
  8
FLOOR_1_IMAGING
 62
  8
 10
       27.43200
 20
       70.10400
 30
        0.00000
 11
       27.43200
 21
       64.00800
 31
        0.00000
 12
        4.26720
 22
       64.00800
 32
        0.00000
 13
        4.26720
 23
       70.10400
 33
        0.00000
999
FLOOR 1 IMAGING:677A76
  0
3DFACE
  8
FLOOR_1_IMAGING
 62
 15
 10
        4.26720
 20
       70.10400
 30
        3.04800
 11
        4.26720
 21
       64.00800
 31
        3.04800
 12
       27.43200
 22
       64.00800
 32
        3.04800
 13
       27.43200
 23
       70.10400
 33
        3.04800
999
FLOOR 1 KITCHEN:97B7B2
  0
3DFACE
  8
FLOOR_1_KITCHEN
 62
 43
 10
       85.64880
 20
       82.90560
 30
        3.04800
 11
       85.64880
 21
       82.90560
 31
        0.00000
 12
       70.71360
 22
       82.90560
 32
        0.00000
 13
       70.71360
 23
       82.90560
 33
        3.04800
999
FLOOR 1 KITCHEN:83BE62
  0
3DFACE
  8
FLOOR_1_KITCHEN
 62
 43
 10
       85.64880
 20
       70.40880
 30
        3.04800
 11
       85.64880
 21
       70.40880
 31
        0.00000
 12
       85.64880
 22
       82.90560
 32
        0.00000
 13
       85.64880
 23
       82.90560
 33
        3.04800
999
FLOOR 1 KITCHEN:BD9906
  0
3DFACE
  8
FLOOR_1_KITCHEN
 62
 43
 10
       70.71360
 20
       70.40880
 30
        3.04800
 11
       70.71360
 21
       70.40880
 31
        0.00000
 12
       85.64880
 22
       70.40880
 32
        0.00000
 13
       85.64880
 23
       70.40880
 33
        3.04800
999
FLOOR 1 KITCHEN:8FA7FA
  0
3DFACE
  8
FLOOR_1_KITCHEN
 62
 43
 10
       70.71360
 20
       82.90560
 30
        3.04800
 11
       70.71360
 21
       82.90560
 31
        0.00000
 12
       70.71360
 22
       70.40880
 32
        0.00000
 13
       70.71360
 23
       70.40880
 33
        3.04800
999
FLOOR 1 KITCHEN:FLOOR 1 KITCHEN SLAB
  0
3DFACE
  8
FLOOR_1_KITCHEN
 62
  8
 10
       85.64880
 20
       82.90560
 30
        0.00000
 11
       85.64880
 21
       70.40880
 31
        0.00000
 12
       70.71360
 22
       70.40880
 32
        0.00000
 13
       70.71360
 23
       82.90560
 33
        0.00000
999
FLOOR 1 KITCHEN:9A2204
  0
3DFACE
  8
FLOOR_1_KITCHEN
 62
 15
 10
       70.71360
 20
       82.90560
 30
        3.04800
 11
       70.71360
 21
       70.40880
 31
        3.04800
 12
       85.64880
 22
       70.40880
 32
        3.04800
 13
       85.64880
 23
       82.90560
 33
        3.04800
999
FLOOR 1 LAB 1:41B2CC
  0
3DFACE
  8
FLOOR_1_LAB_1
 62
 43
 10
       37.18560
 20
       76.20000
 30
        3.04800
 11
       37.18560
 21
       76.20000
 31
        0.00000
 12
       52.42560
 22
       76.20000
 32
        0.00000
 13
       52.42560
 23
       76.20000
 33
        3.04800
999
FLOOR 1 LAB 1:593900
  0
3DFACE
  8
FLOOR_1_LAB_1
 62
 43
 10
       37.18560
 20
       88.39200
 30
        3.04800
 11
       37.18560
 21
       88.39200
 31
        0.00000
 12
       37.18560
 22
       76.20000
 32
        0.00000
 13
       37.18560
 23
       76.20000
 33
        3.04800
999
FLOOR 1 LAB 1:BCB089
  0
3DFACE
  8
FLOOR_1_LAB_1
 62
 43
 10
       52.42560
 20
       88.39200
 30
        3.04800
 11
       52.42560
 21
       88.39200
 31
        0.00000
 12
       37.18560
 22
       88.39200
 32
        0.00000
 13
       37.18560
 23
       88.39200
 33
        3.04800
999
FLOOR 1 LAB 1:64A6CA
  0
3DFACE
  8
FLOOR_1_LAB_1
 62
 43
 10
       52.42560
 20
       76.20000
 30
        3.04800
 11
       52.42560
 21
       76.20000
 31
        0.00000
 12
       52.42560
 22
       88.39200
 32
        0.00000
 13
       52.42560
 23
       88.39200
 33
        3.04800
999
FLOOR 1 LAB 1:FLOOR 1 LAB 1 SLAB
  0
3DFACE
  8
FLOOR_1_LAB_1
 62
  8
 10
       52.42560
 20
       88.39200
 30
        0.00000
 11
       52.42560
 21
       76.20000
 31
        0.00000
 12
       37.18560
 22
       76.20000
 32
        0.00000
 13
       37.18560
 23
       88.39200
 33
        0.00000
999
FLOOR 1 LAB 1:2D4E7C
  0
3DFACE
  8
FLOOR_1_LAB_1
 62
 15
 10
       37.18560
 20
       88.39200
 30
        3.04800
 11
       37.18560
 21
       76.20000
 31
        3.04800
 12
       52.42560
 22
       76.20000
 32
        3.04800
 13
       52.42560
 23
       88.39200
 33
        3.04800
999
FLOOR 1 LAB 2:655607
  0
3DFACE
  8
FLOOR_1_LAB_2
 62
 43
 10
      100.58400
 20
       98.14560
 30
        3.04800
 11
      100.58400
 21
       98.14560
 31
        0.00000
 12
       70.71360
 22
       98.14560
 32
        0.00000
 13
       70.71360
 23
       98.14560
 33
        3.04800
999
FLOOR 1 LAB 2:EF715E
  0
3DFACE
  8
FLOOR_1_LAB_2
 62
 43
 10
       70.71360
 20
       82.90560
 30
        3.04800
 11
       70.71360
 21
       82.90560
 31
        0.00000
 12
      100.58400
 22
       82.90560
 32
        0.00000
 13
      100.58400
 23
       82.90560
 33
        3.04800
999
FLOOR 1 LAB 2:FLOOR 1 LAB 2 EXT WALL
  0
3DFACE
  8
FLOOR_1_LAB_2
 62
 43
 10
      100.58400
 20
       82.90560
 30
        3.04800
 11
      100.58400
 21
       82.90560
 31
        0.00000
 12
      100.58400
 22
       98.14560
 32
        0.00000
 13
      100.58400
 23
       98.14560
 33
        3.04800
999
FLOOR 1 LAB 2:FLOOR 1 LAB 2 EXT WALL_WINDOW_1
  0
3DFACE
  8
FLOOR_1_LAB_2
 62
143
 10
      100.58400
 20
       82.95560
 30
        2.32730
 11
      100.58400
 21
       82.95560
 31
        1.10000
 12
      100.58400
 22
       98.09560
 32
        1.10000
 13
      100.58400
 23
       98.09560
 33
        2.32730
999
FLOOR 1 LAB 2:55D0E3
  0
3DFACE
  8
FLOOR_1_LAB_2
 62
 43
 10
       70.71360
 20
       98.14560
 30
        3.04800
 11
       70.71360
 21
       98.14560
 31
        0.00000
 12
       70.71360
 22
       82.90560
 32
        0.00000
 13
       70.71360
 23
       82.90560
 33
        3.04800
999
FLOOR 1 LAB 2:FLOOR 1 LAB 2 SLAB
  0
3DFACE
  8
FLOOR_1_LAB_2
 62
  8
 10
      100.58400
 20
       98.14560
 30
        0.00000
 11
      100.58400
 21
       82.90560
 31
        0.00000
 12
       70.71360
 22
       82.90560
 32
        0.00000
 13
       70.71360
 23
       98.14560
 33
        0.00000
999
FLOOR 1 LAB 2:549871
  0
3DFACE
  8
FLOOR_1_LAB_2
 62
 15
 10
       70.71360
 20
       98.14560
 30
        3.04800
 11
       70.71360
 21
       82.90560
 31
        3.04800
 12
      100.58400
 22
       82.90560
 32
        3.04800
 13
      100.58400
 23
       98.14560
 33
        3.04800
999
FLOOR 1 LAUNDRY:FLOOR 1 LAUNDRY EXT WALL
  0
3DFACE
  8
FLOOR_1_LAUNDRY
 62
 43
 10
      100.58400
 20
      115.82400
 30
        3.04800
 11
      100.58400
 21
      115.82400
 31
        0.00000
 12
      100.58400
 22
      123.74880
 32
        0.00000
 13
      100.58400
 23
      123.74880
 33
        3.04800
999
FLOOR 1 LAUNDRY:FLOOR 1 LAUNDRY EXT WALL_WINDOW_1
  0
3DFACE
  8
FLOOR_1_LAUNDRY
 62
143
 10
      100.58400
 20
      115.87400
 30
        2.33480
 11
      100.58400
 21
      115.87400
 31
        1.10000
 12
      100.58400
 22
      123.69880
 32
        1.10000
 13
      100.58400
 23
      123.69880
 33
        2.33480
999
FLOOR 1 LAUNDRY:7CD734
  0
3DFACE
  8
FLOOR_1_LAUNDRY
 62
 43
 10
       74.37120
 20
      123.74880
 30
        3.04800
 11
       74.37120
 21
      123.74880
 31
        0.00000
 12
       74.37120
 22
      115.82400
 32
        0.00000
 13
       74.37120
 23
      115.82400
 33
        3.04800
999
FLOOR 1 LAUNDRY:84919E
  0
3DFACE
  8
FLOOR_1_LAUNDRY
 62
 43
 10
       74.37120
 20
      115.82400
 30
        3.04800
 11
       74.37120
 21
      115.82400
 31
        0.00000
 12
      100.58400
 22
      115.82400
 32
        0.00000
 13
      100.58400
 23
      115.82400
 33
        3.04800
999
FLOOR 1 LAUNDRY:EB1C21
  0
3DFACE
  8
FLOOR_1_LAUNDRY
 62
 43
 10
      100.58400
 20
      123.74880
 30
        3.04800
 11
      100.58400
 21
      123.74880
 31
        0.00000
 12
       74.37120
 22
      123.74880
 32
        0.00000
 13
       74.37120
 23
      123.74880
 33
        3.04800
999
FLOOR 1 LAUNDRY:FLOOR 1 LAUNDRY SLAB
  0
3DFACE
  8
FLOOR_1_LAUNDRY
 62
  8
 10
      100.58400
 20
      123.74880
 30
        0.00000
 11
      100.58400
 21
      115.82400
 31
        0.00000
 12
       74.37120
 22
      115.82400
 32
        0.00000
 13
       74.37120
 23
      123.74880
 33
        0.00000
999
FLOOR 1 LAUNDRY:52654B
  0
3DFACE
  8
FLOOR_1_LAUNDRY
 62
 15
 10
       74.37120
 20
      123.74880
 30
        3.04800
 11
       74.37120
 21
      115.82400
 31
        3.04800
 12
      100.58400
 22
      115.82400
 32
        3.04800
 13
      100.58400
 23
      123.74880
 33
        3.04800
999
FLOOR 1 LOBBY:ASE165
  0
3DFACE
  8
FLOOR_1_LOBBY
 62
 43
 10
        0.00000
 20
       48.76800
 30
        3.04800
 11
        0.00000
 21
       48.76800
 31
        0.00000
 12
        4.57200
 22
       48.76800
 32
        0.00000
 13
        4.57200
 23
       48.76800
 33
        3.04800
999
FLOOR 1 LOBBY:FLOOR 1 LOBBY EXT WALL 1
  0
3DFACE
  8
FLOOR_1_LOBBY
 62
 43
 10
        0.00000
 20
       57.91200
 30
        3.04800
 11
        0.00000
 21
       57.91200
 31
        0.00000
 12
        0.00000
 22
       48.76800
 32
        0.00000
 13
        0.00000
 23
       48.76800
 33
        3.04800
999
FLOOR 1 LOBBY:FLOOR 1 LOBBY EXT WALL 1_WINDOW_1
  0
3DFACE
  8
FLOOR_1_LOBBY
 62
143
 10
        0.00000
 20
       57.86200
 30
        2.33270
 11
        0.00000
 21
       57.86200
 31
        1.10000
 12
        0.00000
 22
       48.81800
 32
        1.10000
 13
        0.00000
 23
       48.81800
 33
        2.33270
999
FLOOR 1 LOBBY:413BE3
  0
3DFACE
  8
FLOOR_1_LOBBY
 62
 43
 10
       38.10000
 20
       57.91200
 30
        3.04800
 11
       38.10000
 21
       57.91200
 31
        0.00000
 12
        0.00000
 22
       57.91200
 32
        0.00000
 13
        0.00000
 23
       57.91200
 33
        3.04800
999
FLOOR 1 LOBBY:4B03B3
  0
3DFACE
  8
FLOOR_1_LOBBY
 62
 43
 10
       38.10000
 20
       48.76800
 30
        3.04800
 11
       38.10000
 21
       48.76800
 31
        0.00000
 12
       38.10000
 22
       57.91200
 32
        0.00000
 13
       38.10000
 23
       57.91200
 33
        3.04800
999
FLOOR 1 LOBBY:FEAE00
  0
3DFACE
  8
FLOOR_1_LOBBY
 62
 43
 10
       33.52800
 20
       48.76800
 30
        3.04800
 11
       33.52800
 21
       48.76800
 31
        0.00000
 12
       38.10000
 22
       48.76800
 32
        0.00000
 13
       38.10000
 23
       48.76800
 33
        3.04800
999
FLOOR 1 LOBBY:1CACE2
  0
3DFACE
  8
FLOOR_1_LOBBY
 62
 43
 10
        4.57200
 20
       48.76800
 30
        3.04800
 11
        4.57200
 21
       48.76800
 31
        0.00000
 12
       33.52800
 22
       48.76800
 32
        0.00000
 13
       33.52800
 23
       48.76800
 33
        3.04800
999
FLOOR 1 LOBBY:FLOOR 1 LOBBY SLAB
  0
3DFACE
  8
FLOOR_1_LOBBY
 62
  8
 10
       38.10000
 20
       57.91200
 30
        0.00000
 11
       38.10000
 21
       48.76800
 31
        0.00000
 12
        0.00000
 22
       48.76800
 32
        0.00000
 13
        0.00000
 23
       57.91200
 33
        0.00000
999
FLOOR 1 LOBBY:FLOOR 1 LOBBY ROOF
  0
3DFACE
  8
FLOOR_1_LOBBY
 62
 15
 10
        0.00000
 20
       57.91200
 30
        3.04800
 11
        0.00000
 21
       48.76800
 31
        3.04800
 12
       38.10000
 22
       48.76800
 32
        3.04800
 13
       38.10000
 23
       57.91200
 33
        3.04800
999
FLOOR 1 LOUNGE:92B1AF
  0
3DFACE
  8
FLOOR_1_LOUNGE
 62
 43
 10
       37.18560
 20
       76.20000
 30
        3.04800
 11
       37.18560
 21
       76.20000
 31
        0.00000
 12
       37.18560
 22
       88.39200
 32
        0.00000
 13
       37.18560
 23
       88.39200
 33
        3.04800
999
FLOOR 1 LOUNGE:71445C
  0
3DFACE
  8
FLOOR_1_LOUNGE
 62
 43
 10
       27.43200
 20
       76.20000
 30
        3.04800
 11
       27.43200
 21
       76.20000
 31
        0.00000
 12
       37.18560
 22
       76.20000
 32
        0.00000
 13
       37.18560
 23
       76.20000
 33
        3.04800
999
FLOOR 1 LOUNGE:F84A41
  0
3DFACE
  8
FLOOR_1_LOUNGE
 62
 43
 10
       27.43200
 20
       88.39200
 30
        3.04800
 11
       27.43200
 21
       88.39200
 31
        0.00000
 12
       27.43200
 22
       76.20000
 32
        0.00000
 13
       27.43200
 23
       76.20000
 33
        3.04800
999
FLOOR 1 LOUNGE:154DF6
  0
3DFACE
  8
FLOOR_1_LOUNGE
 62
 43
 10
       37.18560
 20
       88.39200
 30
        3.04800
 11
       37.18560
 21
       88.39200
 31
        0.00000
 12
       27.43200
 22
       88.39200
 32
        0.00000
 13
       27.43200
 23
       88.39200
 33
        3.04800
999
FLOOR 1 LOUNGE:FLOOR 1 LOUNGE SLAB
  0
3DFACE
  8
FLOOR_1_LOUNGE
 62
  8
 10
       37.18560
 20
       88.39200
 30
        0.00000
 11
       37.18560
 21
       76.20000
 31
        0.00000
 12
       27.43200
 22
       76.20000
 32
        0.00000
 13
       27.43200
 23
       88.39200
 33
        0.00000
999
FLOOR 1 LOUNGE:5CB555
  0
3DFACE
  8
FLOOR_1_LOUNGE
 62
 15
 10
       27.43200
 20
       88.39200
 30
        3.04800
 11
       27.43200
 21
       76.20000
 31
        3.04800
 12
       37.18560
 22
       76.20000
 32
        3.04800
 13
       37.18560
 23
       88.39200
 33
        3.04800
999
FLOOR 1 MECH 1:FLOOR 1 MECH 1 EXT WALL 1
  0
3DFACE
  8
FLOOR_1_MECH_1
 62
 43
 10
        0.00000
 20
      115.82400
 30
        3.04800
 11
        0.00000
 21
      115.82400
 31
        0.00000
 12
        0.00000
 22
       88.39200
 32
        0.00000
 13
        0.00000
 23
       88.39200
 33
        3.04800
999
FLOOR 1 MECH 1:FLOOR 1 MECH 1 EXT WALL 1_WINDOW_1
  0
3DFACE
  8
FLOOR_1_MECH_1
 62
143
 10
        0.00000
 20
      115.77400
 30
        2.32370
 11
        0.00000
 21
      115.77400
 31
        1.10000
 12
        0.00000
 22
       88.44200
 32
        1.10000
 13
        0.00000
 23
       88.44200
 33
        2.32370
999
FLOOR 1 MECH 1:FLOOR 1 MECH 1 EXT WALL 2
  0
3DFACE
  8
FLOOR_1_MECH_1
 62
 43
 10
       27.43200
 20
      115.82400
 30
        3.04800
 11
       27.43200
 21
      115.82400
 31
        0.00000
 12
        0.00000
 22
      115.82400
 32
        0.00000
 13
        0.00000
 23
      115.82400
 33
        3.04800
999
FLOOR 1 MECH 1:FLOOR 1 MECH 1 EXT WALL 2_WINDOW_1
  0
3DFACE
  8
FLOOR_1_MECH_1
 62
143
 10
       27.38200
 20
      115.82400
 30
        2.32370
 11
       27.38200
 21
      115.82400
 31
        1.10000
 12
        0.05000
 22
      115.82400
 32
        1.10000
 13
        0.05000
 23
      115.82400
 33
        2.32370
999
FLOOR 1 MECH 1:B8C8EE
  0
3DFACE
  8
FLOOR_1_MECH_1
 62
 43
 10
       27.43200
 20
       88.39200
 30
        3.04800
 11
       27.43200
 21
       88.39200
 31
        0.00000
 12
       27.43200
 22
      115.82400
 32
        0.00000
 13
       27.43200
 23
      115.82400
 33
        3.04800
999
FLOOR 1 MECH 1:4773D8
  0
3DFACE
  8
FLOOR_1_MECH_1
 62
 43
 10
        0.00000
 20
       88.39200
 30
        3.04800
 11
        0.00000
 21
       88.39200
 31
        0.00000
 12
       27.43200
 22
       88.39200
 32
        0.00000
 13
       27.43200
 23
       88.39200
 33
        3.04800
999
FLOOR 1 MECH 1:FLOOR 1 MECH 1 SLAB
  0
3DFACE
  8
FLOOR_1_MECH_1
 62
  8
 10
       27.43200
 20
      115.82400
 30
        0.00000
 11
       27.43200
 21
       88.39200
 31
        0.00000
 12
        0.00000
 22
       88.39200
 32
        0.00000
 13
        0.00000
 23
      115.82400
 33
        0.00000
999
FLOOR 1 MECH 1:8DC320
  0
3DFACE
  8
FLOOR_1_MECH_1
 62
 15
 10
        0.00000
 20
      115.82400
 30
        3.04800
 11
        0.00000
 21
       88.39200
 31
        3.04800
 12
       27.43200
 22
       88.39200
 32
        3.04800
 13
       27.43200
 23
      115.82400
 33
        3.04800
999
FLOOR 1 MECH 2:FLOOR 1 MECH 2 EXT WALL 3
  0
3DFACE
  8
FLOOR_1_MECH_2
 62
 43
 10
       70.71360
 20
      131.67360
 30
        3.04800
 11
       70.71360
 21
      131.67360
 31
        0.00000
 12
       70.71360
 22
      170.68800
 32
        0.00000
 13
       70.71360
 23
      170.68800
 33
        3.04800
999
FLOOR 1 MECH 2:FLOOR 1 MECH 2 EXT WALL 3_WINDOW_1
  0
3DFACE
  8
FLOOR_1_MECH_2
 62
143
 10
       70.71360
 20
      131.72360
 30
        2.32230
 11
       70.71360
 21
      131.72360
 31
        1.10000
 12
       70.71360
 22
      170.63800
 32
        1.10000
 13
       70.71360
 23
      170.63800
 33
        2.32230
999
FLOOR 1 MECH 2:E8F8F5
  0
3DFACE
  8
FLOOR_1_MECH_2
 62
 43
 10
       52.42560
 20
      115.82400
 30
        3.04800
 11
       52.42560
 21
      115.82400
 31
        0.00000
 12
       70.71360
 22
      115.82400
 32
        0.00000
 13
       70.71360
 23
      115.82400
 33
        3.04800
999
FLOOR 1 MECH 2:FLOOR 1 MECH 2 EXT WALL 2
  0
3DFACE
  8
FLOOR_1_MECH_2
 62
 43
 10
       70.71360
 20
      170.68800
 30
        3.04800
 11
       70.71360
 21
      170.68800
 31
        0.00000
 12
       52.42560
 22
      170.68800
 32
        0.00000
 13
       52.42560
 23
      170.68800
 33
        3.04800
999
FLOOR 1 MECH 2:FLOOR 1 MECH 2 EXT WALL 2_WINDOW_1
  0
3DFACE
  8
FLOOR_1_MECH_2
 62
143
 10
       70.66360
 20
      170.68800
 30
        2.32590
 11
       70.66360
 21
      170.68800
 31
        1.10000
 12
       52.47560
 22
      170.68800
 32
        1.10000
 13
       52.47560
 23
      170.68800
 33
        2.32590
999
FLOOR 1 MECH 2:FLOOR 1 MECH 2 EXT WALL 1
  0
3DFACE
  8
FLOOR_1_MECH_2
 62
 43
 10
       52.42560
 20
      170.68800
 30
        3.04800
 11
       52.42560
 21
      170.68800
 31
        0.00000
 12
       52.42560
 22
      115.82400
 32
        0.00000
 13
       52.42560
 23
      115.82400
 33
        3.04800
999
FLOOR 1 MECH 2:FLOOR 1 MECH 2 EXT WALL 1_WINDOW_1
  0
3DFACE
  8
FLOOR_1_MECH_2
 62
143
 10
       52.42560
 20
      170.63800
 30
        2.32140
 11
       52.42560
 21
      170.63800
 31
        1.10000
 12
       52.42560
 22
      115.87400
 32
        1.10000
 13
       52.42560
 23
      115.87400
 33
        2.32140
999
FLOOR 1 MECH 2:9DC69D
  0
3DFACE
  8
FLOOR_1_MECH_2
 62
 43
 10
       70.71360
 20
      115.82400
 30
        3.04800
 11
       70.71360
 21
      115.82400
 31
        0.00000
 12
       70.71360
 22
      131.67360
 32
        0.00000
 13
       70.71360
 23
      131.67360
 33
        3.04800
999
FLOOR 1 MECH 2:FLOOR 1 MECH 2 SLAB
  0
3DFACE
  8
FLOOR_1_MECH_2
 62
  8
 10
       70.71360
 20
      170.68800
 30
        0.00000
 11
       70.71360
 21
      115.82400
 31
        0.00000
 12
       52.42560
 22
      115.82400
 32
        0.00000
 13
       52.42560
 23
      170.68800
 33
        0.00000
999
FLOOR 1 MECH 2:FE2D7B
  0
3DFACE
  8
FLOOR_1_MECH_2
 62
 15
 10
       52.42560
 20
      131.67360
 30
        3.04800
 11
       52.42560
 21
      115.82400
 31
        3.04800
 12
       70.71360
 22
      115.82400
 32
        3.04800
 13
       70.71360
 23
      131.67360
 33
        3.04800
999
FLOOR 1 MECH 2:FLOOR 1 MECH 2 ROOF
  0
3DFACE
  8
FLOOR_1_MECH_2
 62
 15
 10
       52.42560
 20
      170.68800
 30
        3.04800
 11
       52.42560
 21
      131.67360
 31
        3.04800
 12
       70.71360
 22
      131.67360
 32
        3.04800
 13
       70.71360
 23
      170.68800
 33
        3.04800
999
FLOOR 1 OFFICE 1:702493
  0
3DFACE
  8
FLOOR_1_OFFICE_1
 62
 43
 10
       52.42560
 20
       88.39200
 30
        3.04800
 11
       52.42560
 21
       88.39200
 31
        0.00000
 12
       52.42560
 22
      115.82400
 32
        0.00000
 13
       52.42560
 23
      115.82400
 33
        3.04800
999
FLOOR 1 OFFICE 1:FLOOR 1 OFFICE 1 EXT WALL
  0
3DFACE
  8
FLOOR_1_OFFICE_1
 62
 43
 10
       52.42560
 20
      115.82400
 30
        3.04800
 11
       52.42560
 21
      115.82400
 31
        0.00000
 12
       27.43200
 22
      115.82400
 32
        0.00000
 13
       27.43200
 23
      115.82400
 33
        3.04800
999
FLOOR 1 OFFICE 1:FLOOR 1 OFFICE 1 EXT WALL_WINDOW_1
  0
3DFACE
  8
FLOOR_1_OFFICE_1
 62
143
 10
       52.37560
 20
      115.82400
 30
        2.32410
 11
       52.37560
 21
      115.82400
 31
        1.10000
 12
       27.48200
 22
      115.82400
 32
        1.10000
 13
       27.48200
 23
      115.82400
 33
        2.32410
999
FLOOR 1 OFFICE 1:3344C2
  0
3DFACE
  8
FLOOR_1_OFFICE_1
 62
 43
 10
       27.43200
 20
      115.82400
 30
        3.04800
 11
       27.43200
 21
      115.82400
 31
        0.00000
 12
       27.43200
 22
       88.39200
 32
        0.00000
 13
       27.43200
 23
       88.39200
 33
        3.04800
999
FLOOR 1 OFFICE 1:16E425
  0
3DFACE
  8
FLOOR_1_OFFICE_1
 62
 43
 10
       27.43200
 20
       88.39200
 30
        3.04800
 11
       27.43200
 21
       88.39200
 31
        0.00000
 12
       52.42560
 22
       88.39200
 32
        0.00000
 13
       52.42560
 23
       88.39200
 33
        3.04800
999
FLOOR 1 OFFICE 1:FLOOR 1 OFFICE 1 SLAB
  0
3DFACE
  8
FLOOR_1_OFFICE_1
 62
  8
 10
       52.42560
 20
      115.82400
 30
        0.00000
 11
       52.42560
 21
       88.39200
 31
        0.00000
 12
       27.43200
 22
       88.39200
 32
        0.00000
 13
       27.43200
 23
      115.82400
 33
        0.00000
999
FLOOR 1 OFFICE 1:BEADF3
  0
3DFACE
  8
FLOOR_1_OFFICE_1
 62
 15
 10
       27.43200
 20
      115.82400
 30
        3.04800
 11
       27.43200
 21
       88.39200
 31
        3.04800
 12
       52.42560
 22
       88.39200
 32
        3.04800
 13
       52.42560
 23
      115.82400
 33
        3.04800
999
FLOOR 1 OFFICE 2:A7C1BC
  0
3DFACE
  8
FLOOR_1_OFFICE_2
 62
 43
 10
      100.58400
 20
      115.82400
 30
        3.04800
 11
      100.58400
 21
      115.82400
 31
        0.00000
 12
       70.71360
 22
      115.82400
 32
        0.00000
 13
       70.71360
 23
      115.82400
 33
        3.04800
999
FLOOR 1 OFFICE 2:25E6F3
  0
3DFACE
  8
FLOOR_1_OFFICE_2
 62
 43
 10
       70.71360
 20
       98.14560
 30
        3.04800
 11
       70.71360
 21
       98.14560
 31
        0.00000
 12
      100.58400
 22
       98.14560
 32
        0.00000
 13
      100.58400
 23
       98.14560
 33
        3.04800
999
FLOOR 1 OFFICE 2:FLOOR 1 OFFICE 2 EXT WALL
  0
3DFACE
  8
FLOOR_1_OFFICE_2
 62
 43
 10
      100.58400
 20
       98.14560
 30
        3.04800
 11
      100.58400
 21
       98.14560
 31
        0.00000
 12
      100.58400
 22
      115.82400
 32
        0.00000
 13
      100.58400
 23
      115.82400
 33
        3.04800
999
FLOOR 1 OFFICE 2:FLOOR 1 OFFICE 2 EXT WALL_WINDOW_1
  0
3DFACE
  8
FLOOR_1_OFFICE_2
 62
143
 10
      100.58400
 20
       98.19560
 30
        2.32610
 11
      100.58400
 21
       98.19560
 31
        1.10000
 12
      100.58400
 22
      115.77400
 32
        1.10000
 13
      100.58400
 23
      115.77400
 33
        2.32610
999
FLOOR 1 OFFICE 2:F5AFE4
  0
3DFACE
  8
FLOOR_1_OFFICE_2
 62
 43
 10
       70.71360
 20
      115.82400
 30
        3.04800
 11
       70.71360
 21
      115.82400
 31
        0.00000
 12
       70.71360
 22
       98.14560
 32
        0.00000
 13
       70.71360
 23
       98.14560
 33
        3.04800
999
FLOOR 1 OFFICE 2:FLOOR 1 OFFICE 2 SLAB
  0
3DFACE
  8
FLOOR_1_OFFICE_2
 62
  8
 10
      100.58400
 20
      115.82400
 30
        0.00000
 11
      100.58400
 21
       98.14560
 31
        0.00000
 12
       70.71360
 22
       98.14560
 32
        0.00000
 13
       70.71360
 23
      115.82400
 33
        0.00000
999
FLOOR 1 OFFICE 2:9B3C07
  0
3DFACE
  8
FLOOR_1_OFFICE_2
 62
 15
 10
       70.71360
 20
      115.82400
 30
        3.04800
 11
       70.71360
 21
       98.14560
 31
        3.04800
 12
      100.58400
 22
       98.14560
 32
        3.04800
 13
      100.58400
 23
      115.82400
 33
        3.04800
999
FLOOR 1 OFFICE 3:B4D25B
  0
3DFACE
  8
FLOOR_1_OFFICE_3
 62
 43
 10
      175.26000
 20
       78.33360
 30
        3.04800
 11
      175.26000
 21
       78.33360
 31
        0.00000
 12
      118.87200
 22
       78.33360
 32
        0.00000
 13
      118.87200
 23
       78.33360
 33
        3.04800
999
FLOOR 1 OFFICE 3:9AF4A3
  0
3DFACE
  8
FLOOR_1_OFFICE_3
 62
 43
 10
      175.26000
 20
       45.72000
 30
        3.04800
 11
      175.26000
 21
       45.72000
 31
        0.00000
 12
      175.26000
 22
       78.33360
 32
        0.00000
 13
      175.26000
 23
       78.33360
 33
        3.04800
999
FLOOR 1 OFFICE 3:2BFA65
  0
3DFACE
  8
FLOOR_1_OFFICE_3
 62
 43
 10
      118.87200
 20
       45.72000
 30
        3.04800
 11
      118.87200
 21
       45.72000
 31
        0.00000
 12
      175.26000
 22
       45.72000
 32
        0.00000
 13
      175.26000
 23
       45.72000
 33
        3.04800
999
FLOOR 1 OFFICE 3:9C1DCC
  0
3DFACE
  8
FLOOR_1_OFFICE_3
 62
 43
 10
      118.87200
 20
       78.33360
 30
        3.04800
 11
      118.87200
 21
       78.33360
 31
        0.00000
 12
      118.87200
 22
       48.76800
 32
        0.00000
 13
      118.87200
 23
       48.76800
 33
        3.04800
999
FLOOR 1 OFFICE 3:FLOOR 1 OFFICE 3 EXT WALL
  0
3DFACE
  8
FLOOR_1_OFFICE_3
 62
 43
 10
      118.87200
 20
       48.76800
 30
        3.04800
 11
      118.87200
 21
       48.76800
 31
        0.00000
 12
      118.87200
 22
       45.72000
 32
        0.00000
 13
      118.87200
 23
       45.72000
 33
        3.04800
999
FLOOR 1 OFFICE 3:FLOOR 1 OFFICE 3 EXT WALL_WINDOW_1
  0
3DFACE
  8
FLOOR_1_OFFICE_3
 62
143
 10
      118.87200
 20
       48.71800
 30
        2.36060
 11
      118.87200
 21
       48.71800
 31
        1.10000
 12
      118.87200
 22
       45.77000
 32
        1.10000
 13
      118.87200
 23
       45.77000
 33
        2.36060
999
FLOOR 1 OFFICE 3:FLOOR 1 OFFICE 3 SLAB
  0
3DFACE
  8
FLOOR_1_OFFICE_3
 62
  8
 10
      175.26000
 20
       78.33360
 30
        0.00000
 11
      175.26000
 21
       45.72000
 31
        0.00000
 12
      118.87200
 22
       45.72000
 32
        0.00000
 13
      118.87200
 23
       78.33360
 33
        0.00000
999
FLOOR 1 OFFICE 3:EB2D57
  0
3DFACE
  8
FLOOR_1_OFFICE_3
 62
 15
 10
      118.87200
 20
       78.33360
 30
        3.04800
 11
      118.87200
 21
       45.72000
 31
        3.04800
 12
      175.26000
 22
       45.72000
 32
        3.04800
 13
      175.26000
 23
       78.33360
 33
        3.04800
999
FLOOR 1 OFFICE 3 PERIMETER 1:42AA8B
  0
3DFACE
  8
FLOOR_1_OFFICE_3_PERIMETER_1
 62
 43
 10
      175.26000
 20
       78.33360
 30
        3.04800
 11
      175.26000
 21
       78.33360
 31
        0.00000
 12
      179.83200
 22
       82.90560
 32
        0.00000
 13
      179.83200
 23
       82.90560
 33
        3.04800
999
FLOOR 1 OFFICE 3 PERIMETER 1:631343
  0
3DFACE
  8
FLOOR_1_OFFICE_3_PERIMETER_1
 62
 43
 10
      118.87200
 20
       78.33360
 30
        3.04800
 11
      118.87200
 21
       78.33360
 31
        0.00000
 12
      175.26000
 22
       78.33360
 32
        0.00000
 13
      175.26000
 23
       78.33360
 33
        3.04800
999
FLOOR 1 OFFICE 3 PERIMETER 1:6BB1AD
  0
3DFACE
  8
FLOOR_1_OFFICE_3_PERIMETER_1
 62
 43
 10
      118.87200
 20
       82.90560
 30
        3.04800
 11
      118.87200
 21
       82.90560
 31
        0.00000
 12
      118.87200
 22
       78.33360
 32
        0.00000
 13
      118.87200
 23
       78.33360
 33
        3.04800
999
FLOOR 1 OFFICE 3 PERIMETER 1:FLOOR 1 OFFICE 3 PERIMETER 1 EXT WALL
  0
3DFACE
  8
FLOOR_1_OFFICE_3_PERIMETER_1
 62
 43
 10
      179.83200
 20
       82.90560
 30
        3.04800
 11
      179.83200
 21
       82.90560
 31
        0.00000
 12
      118.87200
 22
       82.90560
 32
        0.00000
 13
      118.87200
 23
       82.90560
 33
        3.04800
999
FLOOR 1 OFFICE 3 PERIMETER 1:FLOOR 1 OFFICE 3 PERIMETER 1 EXT WALL_WINDOW_1
  0
3DFACE
  8
FLOOR_1_OFFICE_3_PERIMETER_1
 62
143
 10
      179.78200
 20
       82.90560
 30
        2.32120
 11
      179.78200
 21
       82.90560
 31
        1.10000
 12
      118.92200
 22
       82.90560
 32
        1.10000
 13
      118.92200
 23
       82.90560
 33
        2.32120
999
FLOOR 1 OFFICE 3 PERIMETER 1:FLOOR 1 OFFICE 3 PERIMETER 1 SLAB
  0
3DFACE
  8
FLOOR_1_OFFICE_3_PERIMETER_1
 62
  8
 10
      179.83200
 20
       82.90560
 30
        0.00000
 11
      175.26000
 21
       78.33360
 31
        0.00000
 12
      118.87200
 22
       78.33360
 32
        0.00000
 13
      118.87200
 23
       82.90560
 33
        0.00000
999
FLOOR 1 OFFICE 3 PERIMETER 1:F2E0D9
  0
3DFACE
  8
FLOOR_1_OFFICE_3_PERIMETER_1
 62
 15
 10
      118.87200
 20
       82.90560
 30
        3.04800
 11
      118.87200
 21
       78.33360
 31
        3.04800
 12
      175.26000
 22
       78.33360
 32
        3.04800
 13
      179.83200
 23
       82.90560
 33
        3.04800
999
FLOOR 1 OFFICE 3 PERIMETER 2:43BB6E
  0
3DFACE
  8
FLOOR_1_OFFICE_3_PERIMETER_2
 62
 43
 10
      175.26000
 20
       45.72000
 30
        3.04800
 11
      175.26000
 21
       45.72000
 31
        0.00000
 12
      179.83200
 22
       41.14800
 32
        0.00000
 13
      179.83200
 23
       41.14800
 33
        3.04800
999
FLOOR 1 OFFICE 3 PERIMETER 2:FLOOR 1 OFFICE 3 PERIMETER 2 EXT WALL
  0
3DFACE
  8
FLOOR_1_OFFICE_3_PERIMETER_2
 62
 43
 10
      179.83200
 20
       41.14800
 30
        3.04800
 11
      179.83200
 21
       41.14800
 31
        0.00000
 12
      179.83200
 22
       82.90560
 32
        0.00000
 13
      179.83200
 23
       82.90560
 33
        3.04800
999
FLOOR 1 OFFICE 3 PERIMETER 2:FLOOR 1 OFFICE 3 PERIMETER 2 EXT WALL_WINDOW_1
  0
3DFACE
  8
FLOOR_1_OFFICE_3_PERIMETER_2
 62
143
 10
      179.83200
 20
       41.19800
 30
        2.32210
 11
      179.83200
 21
       41.19800
 31
        1.10000
 12
      179.83200
 22
       82.85560
 32
        1.10000
 13
      179.83200
 23
       82.85560
 33
        2.32210
999
FLOOR 1 OFFICE 3 PERIMETER 2:2848ED
  0
3DFACE
  8
FLOOR_1_OFFICE_3_PERIMETER_2
 62
 43
 10
      179.83200
 20
       82.90560
 30
        3.04800
 11
      179.83200
 21
       82.90560
 31
        0.00000
 12
      175.26000
 22
       78.33360
 32
        0.00000
 13
      175.26000
 23
       78.33360
 33
        3.04800
999
FLOOR 1 OFFICE 3 PERIMETER 2:74F584
  0
3DFACE
  8
FLOOR_1_OFFICE_3_PERIMETER_2
 62
 43
 10
      175.26000
 20
       78.33360
 30
        3.04800
 11
      175.26000
 21
       78.33360
 31
        0.00000
 12
      175.26000
 22
       45.72000
 32
        0.00000
 13
      175.26000
 23
       45.72000
 33
        3.04800
999
FLOOR 1 OFFICE 3 PERIMETER 2:FLOOR 1 OFFICE 3 PERIMETER 2 SLAB
  0
3DFACE
  8
FLOOR_1_OFFICE_3_PERIMETER_2
 62
  8
 10
      179.83200
 20
       82.90560
 30
        0.00000
 11
      179.83200
 21
       41.14800
 31
        0.00000
 12
      175.26000
 22
       45.72000
 32
        0.00000
 13
      175.26000
 23
       78.33360
 33
        0.00000
999
FLOOR 1 OFFICE 3 PERIMETER 2:248701
  0
3DFACE
  8
FLOOR_1_OFFICE_3_PERIMETER_2
 62
 15
 10
      179.83200
 20
       82.90560
 30
        3.04800
 11
      175.26000
 21
       78.33360
 31
        3.04800
 12
      175.26000
 22
       45.72000
 32
        3.04800
 13
      179.83200
 23
       41.14800
 33
        3.04800
999
FLOOR 1 OFFICE 3 PERIMETER 3:FLOOR 1 OFFICE 3 PERIMETER 3 EXT WALL 1
  0
3DFACE
  8
FLOOR_1_OFFICE_3_PERIMETER_3
 62
 43
 10
      118.87200
 20
       45.72000
 30
        3.04800
 11
      118.87200
 21
       45.72000
 31
        0.00000
 12
      118.87200
 22
       41.14800
 32
        0.00000
 13
      118.87200
 23
       41.14800
 33
        3.04800
999
FLOOR 1 OFFICE 3 PERIMETER 3:FLOOR 1 OFFICE 3 PERIMETER 3 EXT WALL 1_WINDOW_1
  0
3DFACE
  8
FLOOR_1_OFFICE_3_PERIMETER_3
 62
143
 10
      118.87200
 20
       45.67000
 30
        2.34650
 11
      118.87200
 21
       45.67000
 31
        1.10000
 12
      118.87200
 22
       41.19800
 32
        1.10000
 13
      118.87200
 23
       41.19800
 33
        2.34650
999
FLOOR 1 OFFICE 3 PERIMETER 3:654897
  0
3DFACE
  8
FLOOR_1_OFFICE_3_PERIMETER_3
 62
 43
 10
      175.26000
 20
       45.72000
 30
        3.04800
 11
      175.26000
 21
       45.72000
 31
        0.00000
 12
      118.87200
 22
       45.72000
 32
        0.00000
 13
      118.87200
 23
       45.72000
 33
        3.04800
999
FLOOR 1 OFFICE 3 PERIMETER 3:FLOOR 1 OFFICE 3 PERIMETER 3 EXT WALL 2
  0
3DFACE
  8
FLOOR_1_OFFICE_3_PERIMETER_3
 62
 43
 10
      118.87200
 20
       41.14800
 30
        3.04800
 11
      118.87200
 21
       41.14800
 31
        0.00000
 12
      179.83200
 22
       41.14800
 32
        0.00000
 13
      179.83200
 23
       41.14800
 33
        3.04800
999
FLOOR 1 OFFICE 3 PERIMETER 3:FLOOR 1 OFFICE 3 PERIMETER 3 EXT WALL 2_WINDOW_1
  0
3DFACE
  8
FLOOR_1_OFFICE_3_PERIMETER_3
 62
143
 10
      118.92200
 20
       41.14800
 30
        2.32120
 11
      118.92200
 21
       41.14800
 31
        1.10000
 12
      179.78200
 22
       41.14800
 32
        1.10000
 13
      179.78200
 23
       41.14800
 33
        2.32120
999
FLOOR 1 OFFICE 3 PERIMETER 3:E11180
  0
3DFACE
  8
FLOOR_1_OFFICE_3_PERIMETER_3
 62
 43
 10
      179.83200
 20
       41.14800
 30
        3.04800
 11
      179.83200
 21
       41.14800
 31
        0.00000
 12
      175.26000
 22
       45.72000
 32
        0.00000
 13
      175.26000
 23
       45.72000
 33
        3.04800
999
FLOOR 1 OFFICE 3 PERIMETER 3:FLOOR 1 OFFICE 3 PERIMETER 3 SLAB
  0
3DFACE
  8
FLOOR_1_OFFICE_3_PERIMETER_3
 62
  8
 10
      179.83200
 20
       41.14800
 30
        0.00000
 11
      118.87200
 21
       41.14800
 31
        0.00000
 12
      118.87200
 22
       45.72000
 32
        0.00000
 13
      175.26000
 23
       45.72000
 33
        0.00000
999
FLOOR 1 OFFICE 3 PERIMETER 3:FD29A8
  0
3DFACE
  8
FLOOR_1_OFFICE_3_PERIMETER_3
 62
 15
 10
      118.87200
 20
       45.72000
 30
        3.04800
 11
      118.87200
 21
       41.14800
 31
        3.04800
 12
      179.83200
 22
       41.14800
 32
        3.04800
 13
      175.26000
 23
       45.72000
 33
        3.04800
999
FLOOR 1 OFFICE 3 PERIMETER 3:FLOOR 1 OFFICE 3 PERIMETER 3 EXT WALL 2:SHADING_SOUTH_1
  0
3DFACE
  8
FLOOR_1_OFFICE_3_PERIMETER_3
 62
 13
 10
      118.92200
 20
       40.53740
 30
        2.32120
 11
      118.92200
 21
       41.14800
 31
        2.32120
 12
      179.78200
 22
       41.14800
 32
        2.32120
 13
      179.78200
 23
       40.53740
 33
        2.32120
999
FLOOR 1 OFFICE 3 PERIMETER 3:Mir-FLOOR 1 OFFICE 3 PERIMETER 3 EXT WALL 2:SHADING_SOUTH_1
  0
3DFACE
  8
FLOOR_1_OFFICE_3_PERIMETER_3
 62
 13
 10
      179.78200
 20
       40.53740
 30
        2.32120
 11
      179.78200
 21
       41.14800
 31
        2.32120
 12
      118.92200
 22
       41.14800
 32
        2.32120
 13
      118.92200
 23
       40.53740
 33
        2.32120
999
FLOOR 1 PATIENT:FLOOR 1 PATIENT EXT WALL
  0
3DFACE
  8
FLOOR_1_PATIENT
 62
 43
 10
        0.00000
 20
       88.39200
 30
        3.04800
 11
        0.00000
 21
       88.39200
 31
        0.00000
 12
        0.00000
 22
       82.29600
 32
        0.00000
 13
        0.00000
 23
       82.29600
 33
        3.04800
999
FLOOR 1 PATIENT:FLOOR 1 PATIENT EXT WALL_WINDOW_1
  0
3DFACE
  8
FLOOR_1_PATIENT
 62
143
 10
        0.00000
 20
       88.34200
 30
        2.33950
 11
        0.00000
 21
       88.34200
 31
        1.10000
 12
        0.00000
 22
       82.34600
 32
        1.10000
 13
        0.00000
 23
       82.34600
 33
        2.33950
999
FLOOR 1 PATIENT:B183D8
  0
3DFACE
  8
FLOOR_1_PATIENT
 62
 43
 10
       27.43200
 20
       88.39200
 30
        3.04800
 11
       27.43200
 21
       88.39200
 31
        0.00000
 12
        0.00000
 22
       88.39200
 32
        0.00000
 13
        0.00000
 23
       88.39200
 33
        3.04800
999
FLOOR 1 PATIENT:AC33F5
  0
3DFACE
  8
FLOOR_1_PATIENT
 62
 43
 10
       27.43200
 20
       82.29600
 30
        3.04800
 11
       27.43200
 21
       82.29600
 31
        0.00000
 12
       27.43200
 22
       88.39200
 32
        0.00000
 13
       27.43200
 23
       88.39200
 33
        3.04800
999
FLOOR 1 PATIENT:53963C
  0
3DFACE
  8
FLOOR_1_PATIENT
 62
 43
 10
        0.00000
 20
       82.29600
 30
        3.04800
 11
        0.00000
 21
       82.29600
 31
        0.00000
 12
       27.43200
 22
       82.29600
 32
        0.00000
 13
       27.43200
 23
       82.29600
 33
        3.04800
999
FLOOR 1 PATIENT:FLOOR 1 PATIENT SLAB
  0
3DFACE
  8
FLOOR_1_PATIENT
 62
  8
 10
       27.43200
 20
       88.39200
 30
        0.00000
 11
       27.43200
 21
       82.29600
 31
        0.00000
 12
        0.00000
 22
       82.29600
 32
        0.00000
 13
        0.00000
 23
       88.39200
 33
        0.00000
999
FLOOR 1 PATIENT:C045BE
  0
3DFACE
  8
FLOOR_1_PATIENT
 62
 15
 10
        0.00000
 20
       88.39200
 30
        3.04800
 11
        0.00000
 21
       82.29600
 31
        3.04800
 12
       27.43200
 22
       82.29600
 32
        3.04800
 13
       27.43200
 23
       88.39200
 33
        3.04800
999
FLOOR 1 PHARMACY:34D5A4
  0
3DFACE
  8
FLOOR_1_PHARMACY
 62
 43
 10
       70.71360
 20
       88.39200
 30
        3.04800
 11
       70.71360
 21
       88.39200
 31
        0.00000
 12
       52.42560
 22
       88.39200
 32
        0.00000
 13
       52.42560
 23
       88.39200
 33
        3.04800
999
FLOOR 1 PHARMACY:AB8FAE
  0
3DFACE
  8
FLOOR_1_PHARMACY
 62
 43
 10
       52.42560
 20
       57.91200
 30
        3.04800
 11
       52.42560
 21
       57.91200
 31
        0.00000
 12
       70.71360
 22
       57.91200
 32
        0.00000
 13
       70.71360
 23
       57.91200
 33
        3.04800
999
FLOOR 1 PHARMACY:834683
  0
3DFACE
  8
FLOOR_1_PHARMACY
 62
 43
 10
       70.71360
 20
       57.91200
 30
        3.04800
 11
       70.71360
 21
       57.91200
 31
        0.00000
 12
       70.71360
 22
       88.39200
 32
        0.00000
 13
       70.71360
 23
       88.39200
 33
        3.04800
999
FLOOR 1 PHARMACY:DDD118
  0
3DFACE
  8
FLOOR_1_PHARMACY
 62
 43
 10
       52.42560
 20
       88.39200
 30
        3.04800
 11
       52.42560
 21
       88.39200
 31
        0.00000
 12
       52.42560
 22
       57.91200
 32
        0.00000
 13
       52.42560
 23
       57.91200
 33
        3.04800
999
FLOOR 1 PHARMACY:FLOOR 1 PHARMACY SLAB
  0
3DFACE
  8
FLOOR_1_PHARMACY
 62
  8
 10
       70.71360
 20
       88.39200
 30
        0.00000
 11
       70.71360
 21
       57.91200
 31
        0.00000
 12
       52.42560
 22
       57.91200
 32
        0.00000
 13
       52.42560
 23
       88.39200
 33
        0.00000
999
FLOOR 1 PHARMACY:9E5C6A
  0
3DFACE
  8
FLOOR_1_PHARMACY
 62
 15
 10
       52.42560
 20
       88.39200
 30
        3.04800
 11
       52.42560
 21
       57.91200
 31
        3.04800
 12
       70.71360
 22
       57.91200
 32
        3.04800
 13
       70.71360
 23
       88.39200
 33
        3.04800
999
FLOOR 1 PHYSICAL THERAPY:F6099F
  0
3DFACE
  8
FLOOR_1_PHYSICAL_THERAPY
 62
 43
 10
       52.42560
 20
       57.91200
 30
        3.04800
 11
       52.42560
 21
       57.91200
 31
        0.00000
 12
       52.42560
 22
       76.20000
 32
        0.00000
 13
       52.42560
 23
       76.20000
 33
        3.04800
999
FLOOR 1 PHYSICAL THERAPY:255FB4
  0
3DFACE
  8
FLOOR_1_PHYSICAL_THERAPY
 62
 43
 10
       27.43200
 20
       57.91200
 30
        3.04800
 11
       27.43200
 21
       57.91200
 31
        0.00000
 12
       52.42560
 22
       57.91200
 32
        0.00000
 13
       52.42560
 23
       57.91200
 33
        3.04800
999
FLOOR 1 PHYSICAL THERAPY:DECF1C
  0
3DFACE
  8
FLOOR_1_PHYSICAL_THERAPY
 62
 43
 10
       27.43200
 20
       76.20000
 30
        3.04800
 11
       27.43200
 21
       76.20000
 31
        0.00000
 12
       27.43200
 22
       57.91200
 32
        0.00000
 13
       27.43200
 23
       57.91200
 33
        3.04800
999
FLOOR 1 PHYSICAL THERAPY:161737
  0
3DFACE
  8
FLOOR_1_PHYSICAL_THERAPY
 62
 43
 10
       52.42560
 20
       76.20000
 30
        3.04800
 11
       52.42560
 21
       76.20000
 31
        0.00000
 12
       27.43200
 22
       76.20000
 32
        0.00000
 13
       27.43200
 23
       76.20000
 33
        3.04800
999
FLOOR 1 PHYSICAL THERAPY:FLOOR 1 PHYSICAL THERAPY SLAB
  0
3DFACE
  8
FLOOR_1_PHYSICAL_THERAPY
 62
  8
 10
       52.42560
 20
       76.20000
 30
        0.00000
 11
       52.42560
 21
       57.91200
 31
        0.00000
 12
       27.43200
 22
       57.91200
 32
        0.00000
 13
       27.43200
 23
       76.20000
 33
        0.00000
999
FLOOR 1 PHYSICAL THERAPY:D88F3B
  0
3DFACE
  8
FLOOR_1_PHYSICAL_THERAPY
 62
 15
 10
       27.43200
 20
       76.20000
 30
        3.04800
 11
       27.43200
 21
       57.91200
 31
        3.04800
 12
       52.42560
 22
       57.91200
 32
        3.04800
 13
       52.42560
 23
       76.20000
 33
        3.04800
999
FLOOR 1 RECEIVING:FLOOR 1 RECEIVING EXT WALL
  0
3DFACE
  8
FLOOR_1_RECEIVING
 62
 43
 10
      100.58400
 20
      123.74880
 30
        3.04800
 11
      100.58400
 21
      123.74880
 31
        0.00000
 12
      100.58400
 22
      131.67360
 32
        0.00000
 13
      100.58400
 23
      131.67360
 33
        3.04800
999
FLOOR 1 RECEIVING:FLOOR 1 RECEIVING EXT WALL_WINDOW_1
  0
3DFACE
  8
FLOOR_1_RECEIVING
 62
143
 10
      100.58400
 20
      123.79880
 30
        2.33480
 11
      100.58400
 21
      123.79880
 31
        1.10000
 12
      100.58400
 22
      131.62360
 32
        1.10000
 13
      100.58400
 23
      131.62360
 33
        2.33480
999
FLOOR 1 RECEIVING:DEF9E8
  0
3DFACE
  8
FLOOR_1_RECEIVING
 62
 43
 10
       74.37120
 20
      131.67360
 30
        3.04800
 11
       74.37120
 21
      131.67360
 31
        0.00000
 12
       74.37120
 22
      123.74880
 32
        0.00000
 13
       74.37120
 23
      123.74880
 33
        3.04800
999
FLOOR 1 RECEIVING:CAEBE3
  0
3DFACE
  8
FLOOR_1_RECEIVING
 62
 43
 10
       74.37120
 20
      123.74880
 30
        3.04800
 11
       74.37120
 21
      123.74880
 31
        0.00000
 12
      100.58400
 22
      123.74880
 32
        0.00000
 13
      100.58400
 23
      123.74880
 33
        3.04800
999
FLOOR 1 RECEIVING:FLOOR 1 RECEIVING EXT WALL 2
  0
3DFACE
  8
FLOOR_1_RECEIVING
 62
 43
 10
      100.58400
 20
      131.67360
 30
        3.04800
 11
      100.58400
 21
      131.67360
 31
        0.00000
 12
       74.37120
 22
      131.67360
 32
        0.00000
 13
       74.37120
 23
      131.67360
 33
        3.04800
999
FLOOR 1 RECEIVING:FLOOR 1 RECEIVING EXT WALL 2_WINDOW_1
  0
3DFACE
  8
FLOOR_1_RECEIVING
 62
143
 10
      100.53400
 20
      131.67360
 30
        2.32390
 11
      100.53400
 21
      131.67360
 31
        1.10000
 12
       74.42120
 22
      131.67360
 32
        1.10000
 13
       74.42120
 23
      131.67360
 33
        2.32390
999
FLOOR 1 RECEIVING:FLOOR 1 RECEIVING SLAB
  0
3DFACE
  8
FLOOR_1_RECEIVING
 62
  8
 10
      100.58400
 20
      131.67360
 30
        0.00000
 11
      100.58400
 21
      123.74880
 31
        0.00000
 12
       74.37120
 22
      123.74880
 32
        0.00000
 13
       74.37120
 23
      131.67360
 33
        0.00000
999
FLOOR 1 RECEIVING:66A83F
  0
3DFACE
  8
FLOOR_1_RECEIVING
 62
 15
 10
       74.37120
 20
      131.67360
 30
        3.04800
 11
       74.37120
 21
      123.74880
 31
        3.04800
 12
      100.58400
 22
      123.74880
 32
        3.04800
 13
      100.58400
 23
      131.67360
 33
        3.04800
999
FLOOR 1 RECEPTION:D64DE3
  0
3DFACE
  8
FLOOR_1_RECEPTION
 62
 43
 10
        0.00000
 20
       57.91200
 30
        3.04800
 11
        0.00000
 21
       57.91200
 31
        0.00000
 12
        4.26720
 22
       57.91200
 32
        0.00000
 13
        4.26720
 23
       57.91200
 33
        3.04800
999
FLOOR 1 RECEPTION:FLOOR 1 RECEPTION EXT WALL
  0
3DFACE
  8
FLOOR_1_RECEPTION
 62
 43
 10
        0.00000
 20
       70.10400
 30
        3.04800
 11
        0.00000
 21
       70.10400
 31
        0.00000
 12
        0.00000
 22
       57.91200
 32
        0.00000
 13
        0.00000
 23
       57.91200
 33
        3.04800
999
FLOOR 1 RECEPTION:FLOOR 1 RECEPTION EXT WALL_WINDOW_1
  0
3DFACE
  8
FLOOR_1_RECEPTION
 62
143
 10
        0.00000
 20
       70.05400
 30
        2.32930
 11
        0.00000
 21
       70.05400
 31
        1.10000
 12
        0.00000
 22
       57.96200
 32
        1.10000
 13
        0.00000
 23
       57.96200
 33
        2.32930
999
FLOOR 1 RECEPTION:4D7D0F
  0
3DFACE
  8
FLOOR_1_RECEPTION
 62
 43
 10
        4.26720
 20
       70.10400
 30
        3.04800
 11
        4.26720
 21
       70.10400
 31
        0.00000
 12
        0.00000
 22
       70.10400
 32
        0.00000
 13
        0.00000
 23
       70.10400
 33
        3.04800
999
FLOOR 1 RECEPTION:946CEB
  0
3DFACE
  8
FLOOR_1_RECEPTION
 62
 43
 10
        4.26720
 20
       57.91200
 30
        3.04800
 11
        4.26720
 21
       57.91200
 31
        0.00000
 12
        4.26720
 22
       70.10400
 32
        0.00000
 13
        4.26720
 23
       70.10400
 33
        3.04800
999
FLOOR 1 RECEPTION:FLOOR 1 RECEPTION SLAB
  0
3DFACE
  8
FLOOR_1_RECEPTION
 62
  8
 10
        4.26720
 20
       70.10400
 30
        0.00000
 11
        4.26720
 21
       57.91200
 31
        0.00000
 12
        0.00000
 22
       57.91200
 32
        0.00000
 13
        0.00000
 23
       70.10400
 33
        0.00000
999
FLOOR 1 RECEPTION:E39985
  0
3DFACE
  8
FLOOR_1_RECEPTION
 62
 15
 10
        0.00000
 20
       70.10400
 30
        3.04800
 11
        0.00000
 21
       57.91200
 31
        3.04800
 12
        4.26720
 22
       57.91200
 32
        3.04800
 13
        4.26720
 23
       70.10400
 33
        3.04800
999
FLOOR 1 SOIL:C7270A
  0
3DFACE
  8
FLOOR_1_SOIL
 62
 43
 10
       20.11680
 20
       76.20000
 30
        3.04800
 11
       20.11680
 21
       76.20000
 31
        0.00000
 12
       20.11680
 22
       70.10400
 32
        0.00000
 13
       20.11680
 23
       70.10400
 33
        3.04800
999
FLOOR 1 SOIL:D83E20
  0
3DFACE
  8
FLOOR_1_SOIL
 62
 43
 10
       27.43200
 20
       76.20000
 30
        3.04800
 11
       27.43200
 21
       76.20000
 31
        0.00000
 12
       20.11680
 22
       76.20000
 32
        0.00000
 13
       20.11680
 23
       76.20000
 33
        3.04800
999
FLOOR 1 SOIL:60C051
  0
3DFACE
  8
FLOOR_1_SOIL
 62
 43
 10
       27.43200
 20
       70.10400
 30
        3.04800
 11
       27.43200
 21
       70.10400
 31
        0.00000
 12
       27.43200
 22
       76.20000
 32
        0.00000
 13
       27.43200
 23
       76.20000
 33
        3.04800
999
FLOOR 1 SOIL:583FB8
  0
3DFACE
  8
FLOOR_1_SOIL
 62
 43
 10
       20.11680
 20
       70.10400
 30
        3.04800
 11
       20.11680
 21
       70.10400
 31
        0.00000
 12
       27.43200
 22
       70.10400
 32
        0.00000
 13
       27.43200
 23
       70.10400
 33
        3.04800
999
FLOOR 1 SOIL:FLOOR 1 SOIL SLAB
  0
3DFACE
  8
FLOOR_1_SOIL
 62
  8
 10
       27.43200
 20
       76.20000
 30
        0.00000
 11
       27.43200
 21
       70.10400
 31
        0.00000
 12
       20.11680
 22
       70.10400
 32
        0.00000
 13
       20.11680
 23
       76.20000
 33
        0.00000
999
FLOOR 1 SOIL:1E6B1B
  0
3DFACE
  8
FLOOR_1_SOIL
 62
 15
 10
       20.11680
 20
       76.20000
 30
        3.04800
 11
       20.11680
 21
       70.10400
 31
        3.04800
 12
       27.43200
 22
       70.10400
 32
        3.04800
 13
       27.43200
 23
       76.20000
 33
        3.04800
999
FLOOR 1 STORAGE:A177F4
  0
3DFACE
  8
FLOOR_1_STORAGE
 62
 43
 10
       70.71360
 20
      115.82400
 30
        3.04800
 11
       70.71360
 21
      115.82400
 31
        0.00000
 12
       52.42560
 22
      115.82400
 32
        0.00000
 13
       52.42560
 23
      115.82400
 33
        3.04800
999
FLOOR 1 STORAGE:1A6662
  0
3DFACE
  8
FLOOR_1_STORAGE
 62
 43
 10
       52.42560
 20
       88.39200
 30
        3.04800
 11
       52.42560
 21
       88.39200
 31
        0.00000
 12
       70.71360
 22
       88.39200
 32
        0.00000
 13
       70.71360
 23
       88.39200
 33
        3.04800
999
FLOOR 1 STORAGE:33C67D
  0
3DFACE
  8
FLOOR_1_STORAGE
 62
 43
 10
       52.42560
 20
      115.82400
 30
        3.04800
 11
       52.42560
 21
      115.82400
 31
        0.00000
 12
       52.42560
 22
       88.39200
 32
        0.00000
 13
       52.42560
 23
       88.39200
 33
        3.04800
999
FLOOR 1 STORAGE:30C9BB
  0
3DFACE
  8
FLOOR_1_STORAGE
 62
 43
 10
       70.71360
 20
       88.39200
 30
        3.04800
 11
       70.71360
 21
       88.39200
 31
        0.00000
 12
       70.71360
 22
      115.82400
 32
        0.00000
 13
       70.71360
 23
      115.82400
 33
        3.04800
999
FLOOR 1 STORAGE:FLOOR 1 STORAGE SLAB
  0
3DFACE
  8
FLOOR_1_STORAGE
 62
  8
 10
       70.71360
 20
      115.82400
 30
        0.00000
 11
       70.71360
 21
       88.39200
 31
        0.00000
 12
       52.42560
 22
       88.39200
 32
        0.00000
 13
       52.42560
 23
      115.82400
 33
        0.00000
999
FLOOR 1 STORAGE:840A78
  0
3DFACE
  8
FLOOR_1_STORAGE
 62
 15
 10
       52.42560
 20
      115.82400
 30
        3.04800
 11
       52.42560
 21
       88.39200
 31
        3.04800
 12
       70.71360
 22
       88.39200
 32
        3.04800
 13
       70.71360
 23
      115.82400
 33
        3.04800
999
FLOOR 1 WAITING:6C9BD2
  0
3DFACE
  8
FLOOR_1_WAITING
 62
 43
 10
        4.26720
 20
       64.00800
 30
        3.04800
 11
        4.26720
 21
       64.00800
 31
        0.00000
 12
        4.26720
 22
       57.91200
 32
        0.00000
 13
        4.26720
 23
       57.91200
 33
        3.04800
999
FLOOR 1 WAITING:1BCB43
  0
3DFACE
  8
FLOOR_1_WAITING
 62
 43
 10
       27.43200
 20
       57.91200
 30
        3.04800
 11
       27.43200
 21
       57.91200
 31
        0.00000
 12
       27.43200
 22
       64.00800
 32
        0.00000
 13
       27.43200
 23
       64.00800
 33
        3.04800
999
FLOOR 1 WAITING:7924FB
  0
3DFACE
  8
FLOOR_1_WAITING
 62
 43
 10
       27.43200
 20
       64.00800
 30
        3.04800
 11
       27.43200
 21
       64.00800
 31
        0.00000
 12
        4.26720
 22
       64.00800
 32
        0.00000
 13
        4.26720
 23
       64.00800
 33
        3.04800
999
FLOOR 1 WAITING:CE4280
  0
3DFACE
  8
FLOOR_1_WAITING
 62
 43
 10
        4.26720
 20
       57.91200
 30
        3.04800
 11
        4.26720
 21
       57.91200
 31
        0.00000
 12
       27.43200
 22
       57.91200
 32
        0.00000
 13
       27.43200
 23
       57.91200
 33
        3.04800
999
FLOOR 1 WAITING:FLOOR 1 WAITING SLAB
  0
3DFACE
  8
FLOOR_1_WAITING
 62
  8
 10
       27.43200
 20
       64.00800
 30
        0.00000
 11
       27.43200
 21
       57.91200
 31
        0.00000
 12
        4.26720
 22
       57.91200
 32
        0.00000
 13
        4.26720
 23
       64.00800
 33
        0.00000
999
FLOOR 1 WAITING:491325
  0
3DFACE
  8
FLOOR_1_WAITING
 62
 15
 10
        4.26720
 20
       64.00800
 30
        3.04800
 11
        4.26720
 21
       57.91200
 31
        3.04800
 12
       27.43200
 22
       57.91200
 32
        3.04800
 13
       27.43200
 23
       64.00800
 33
        3.04800
999
FLOOR 2 CHAPEL:37A085
  0
3DFACE
  8
FLOOR_2_CHAPEL
 62
 43
 10
       73.15200
 20
       57.91200
 30
        6.09600
 11
       73.15200
 21
       57.91200
 31
        3.04800
 12
       52.42560
 22
       57.91200
 32
        3.04800
 13
       52.42560
 23
       57.91200
 33
        6.09600
999
FLOOR 2 CHAPEL:BE5B96
  0
3DFACE
  8
FLOOR_2_CHAPEL
 62
 43
 10
       73.15200
 20
       48.76800
 30
        6.09600
 11
       73.15200
 21
       48.76800
 31
        3.04800
 12
       73.15200
 22
       57.91200
 32
        3.04800
 13
       73.15200
 23
       57.91200
 33
        6.09600
999
FLOOR 2 CHAPEL:FLOOR 2 CHAPEL EXT WALL 2
  0
3DFACE
  8
FLOOR_2_CHAPEL
 62
 43
 10
       52.42560
 20
       48.76800
 30
        6.09600
 11
       52.42560
 21
       48.76800
 31
        3.04800
 12
       73.15200
 22
       48.76800
 32
        3.04800
 13
       73.15200
 23
       48.76800
 33
        6.09600
999
FLOOR 2 CHAPEL:FLOOR 2 CHAPEL EXT WALL 2_WINDOW_1
  0
3DFACE
  8
FLOOR_2_CHAPEL
 62
143
 10
       52.47560
 20
       48.76800
 30
        5.37310
 11
       52.47560
 21
       48.76800
 31
        4.14800
 12
       73.10200
 22
       48.76800
 32
        4.14800
 13
       73.10200
 23
       48.76800
 33
        5.37310
999
FLOOR 2 CHAPEL:FLOOR 2 CHAPEL EXT WALL 1
  0
3DFACE
  8
FLOOR_2_CHAPEL
 62
 43
 10
       52.42560
 20
       57.91200
 30
        6.09600
 11
       52.42560
 21
       57.91200
 31
        3.04800
 12
       52.42560
 22
       48.76800
 32
        3.04800
 13
       52.42560
 23
       48.76800
 33
        6.09600
999
FLOOR 2 CHAPEL:FLOOR 2 CHAPEL EXT WALL 1_WINDOW_1
  0
3DFACE
  8
FLOOR_2_CHAPEL
 62
143
 10
       52.42560
 20
       57.86200
 30
        5.38070
 11
       52.42560
 21
       57.86200
 31
        4.14800
 12
       52.42560
 22
       48.81800
 32
        4.14800
 13
       52.42560
 23
       48.81800
 33
        5.38070
999
FLOOR 2 CHAPEL:86DF0D
  0
3DFACE
  8
FLOOR_2_CHAPEL
 62
  8
 10
       73.15200
 20
       57.91200
 30
        3.04800
 11
       73.15200
 21
       48.76800
 31
        3.04800
 12
       52.42560
 22
       48.76800
 32
        3.04800
 13
       52.42560
 23
       57.91200
 33
        3.04800
999
FLOOR 2 CHAPEL:FLOOR 2 CHAPEL ROOF
  0
3DFACE
  8
FLOOR_2_CHAPEL
 62
 15
 10
       52.42560
 20
       57.91200
 30
        6.09600
 11
       52.42560
 21
       48.76800
 31
        6.09600
 12
       73.15200
 22
       48.76800
 32
        6.09600
 13
       73.15200
 23
       57.91200
 33
        6.09600
999
FLOOR 2 CHAPEL:FLOOR 2 CHAPEL EXT WALL 2:SHADING_SOUTH_1
  0
3DFACE
  8
FLOOR_2_CHAPEL
 62
 13
 10
       52.47560
 20
       48.15540
 30
        5.37310
 11
       52.47560
 21
       48.76800
 31
        5.37310
 12
       73.10200
 22
       48.76800
 32
        5.37310
 13
       73.10200
 23
       48.15540
 33
        5.37310
999
FLOOR 2 CHAPEL:Mir-FLOOR 2 CHAPEL EXT WALL 2:SHADING_SOUTH_1
  0
3DFACE
  8
FLOOR_2_CHAPEL
 62
 13
[...]
 33
       15.24000
999
MOB FLOOR 5 PERIMETER 3:9563EE
  0
3DFACE
  8
MOB_FLOOR_5_PERIMETER_3
 62
 43
 10
       33.52800
 20
       44.19600
 30
       15.24000
 11
       33.52800
 21
       44.19600
 31
       12.19200
 12
       33.52800
 22
        4.57200
 32
       12.19200
 13
       33.52800
 23
        4.57200
 33
       15.24000
999
MOB FLOOR 5 PERIMETER 3:112B33
  0
3DFACE
  8
MOB_FLOOR_5_PERIMETER_3
 62
 43
 10
       38.10000
 20
       48.76800
 30
       15.24000
 11
       38.10000
 21
       48.76800
 31
       12.19200
 12
       33.52800
 22
       44.19600
 32
       12.19200
 13
       33.52800
 23
       44.19600
 33
       15.24000
999
MOB FLOOR 5 PERIMETER 3:MOB FLOOR 5 PERIMETER 3 EXT WALL
  0
3DFACE
  8
MOB_FLOOR_5_PERIMETER_3
 62
 43
 10
       38.10000
 20
        0.00000
 30
       15.24000
 11
       38.10000
 21
        0.00000
 31
       12.19200
 12
       38.10000
 22
       48.76800
 32
       12.19200
 13
       38.10000
 23
       48.76800
 33
       15.24000
999
MOB FLOOR 5 PERIMETER 3:MOB FLOOR 5 PERIMETER 3 EXT WALL_WINDOW_1
  0
3DFACE
  8
MOB_FLOOR_5_PERIMETER_3
 62
143
 10
       38.10000
 20
        0.05000
 30
       14.51370
 11
       38.10000
 21
        0.05000
 31
       13.29200
 12
       38.10000
 22
       48.71800
 32
       13.29200
 13
       38.10000
 23
       48.71800
 33
       14.51370
999
MOB FLOOR 5 PERIMETER 3:MOB FLOOR 5 PERIMETER 3 ADIABATIC FLOOR
  0
3DFACE
  8
MOB_FLOOR_5_PERIMETER_3
 62
  8
 10
       38.10000
 20
       48.76800
 30
       12.19200
 11
       38.10000
 21
        0.00000
 31
       12.19200
 12
       33.52800
 22
        4.57200
 32
       12.19200
 13
       33.52800
 23
       44.19600
 33
       12.19200
999
MOB FLOOR 5 PERIMETER 3:MOB FLOOR 5 PERIMETER 3 ROOF
  0
3DFACE
  8
MOB_FLOOR_5_PERIMETER_3
 62
 15
 10
       33.52800
 20
       44.19600
 30
       15.24000
 11
       33.52800
 21
        4.57200
 31
       15.24000
 12
       38.10000
 22
        0.00000
 32
       15.24000
 13
       38.10000
 23
       48.76800
 33
       15.24000
999
MOB FLOOR 5 PERIMETER 4:FCB84A
  0
3DFACE
  8
MOB_FLOOR_5_PERIMETER_4
 62
 43
 10
       33.52800
 20
       44.19600
 30
       15.24000
 11
       33.52800
 21
       44.19600
 31
       12.19200
 12
       38.10000
 22
       48.76800
 32
       12.19200
 13
       38.10000
 23
       48.76800
 33
       15.24000
999
MOB FLOOR 5 PERIMETER 4:843462
  0
3DFACE
  8
MOB_FLOOR_5_PERIMETER_4
 62
 43
 10
        4.57200
 20
       44.19600
 30
       15.24000
 11
        4.57200
 21
       44.19600
 31
       12.19200
 12
       33.52800
 22
       44.19600
 32
       12.19200
 13
       33.52800
 23
       44.19600
 33
       15.24000
999
MOB FLOOR 5 PERIMETER 4:F6C992
  0
3DFACE
  8
MOB_FLOOR_5_PERIMETER_4
 62
 43
 10
        0.00000
 20
       48.76800
 30
       15.24000
 11
        0.00000
 21
       48.76800
 31
       12.19200
 12
        4.57200
 22
       44.19600
 32
       12.19200
 13
        4.57200
 23
       44.19600
 33
       15.24000
999
MOB FLOOR 5 PERIMETER 4:MOB FLOOR 5 PERIMETER 4 EXT WALL
  0
3DFACE
  8
MOB_FLOOR_5_PERIMETER_4
 62
 43
 10
       38.10000
 20
       48.76800
 30
       15.24000
 11
       38.10000
 21
       48.76800
 31
       12.19200
 12
        0.00000
 22
       48.76800
 32
       12.19200
 13
        0.00000
 23
       48.76800
 33
       15.24000
999
MOB FLOOR 5 PERIMETER 4:MOB FLOOR 5 PERIMETER 4 EXT WALL_WINDOW_1
  0
3DFACE
  8
MOB_FLOOR_5_PERIMETER_4
 62
143
 10
       38.05000
 20
       48.76800
 30
       14.51440
 11
       38.05000
 21
       48.76800
 31
       13.29200
 12
        0.05000
 22
       48.76800
 32
       13.29200
 13
        0.05000
 23
       48.76800
 33
       14.51440
999
MOB FLOOR 5 PERIMETER 4:MOB FLOOR 5 PERIMETER 4 ADIABATIC FLOOR
  0
3DFACE
  8
MOB_FLOOR_5_PERIMETER_4
 62
  8
 10
       38.10000
 20
       48.76800
 30
       12.19200
 11
       33.52800
 21
       44.19600
 31
       12.19200
 12
        4.57200
 22
       44.19600
 32
       12.19200
 13
        0.00000
 23
       48.76800
 33
       12.19200
999
MOB FLOOR 5 PERIMETER 4:MOB FLOOR 5 PERIMETER 5 ROOF
  0
3DFACE
  8
MOB_FLOOR_5_PERIMETER_4
 62
 15
 10
        0.00000
 20
       48.76800
 30
       15.24000
 11
        4.57200
 21
       44.19600
 31
       15.24000
 12
       33.52800
 22
       44.19600
 32
       15.24000
 13
       38.10000
 23
       48.76800
 33
       15.24000
999
FLOOR 1 CONFERENCE:DayRefPt:1
  0
CIRCLE
  8
FLOOR_1_CONFERENCE
 62
 10
 10
       76.50500
 20
       53.34000
 30
        0.76200
 40
        0.20000
999
FLOOR 1 DINING:DayRefPt:1
  0
CIRCLE
  8
FLOOR_1_DINING
 62
 10
 10
      109.72800
 20
       70.40860
 30
        0.76200
 40
        0.20000
999
FLOOR 1 ELEVATOR:DayRefPt:1
  0
CIRCLE
  8
FLOOR_1_ELEVATOR
 62
 10
 10
      109.72800
 20
       53.34000
 30
        0.76200
 40
        0.20000
999
FLOOR 1 LAUNDRY:DayRefPt:1
  0
CIRCLE
  8
FLOOR_1_LAUNDRY
 62
 10
 10
       87.47800
 20
      119.78600
 30
        0.76200
 40
        0.20000
999
FLOOR 1 LOBBY:DayRefPt:1
  0
CIRCLE
  8
FLOOR_1_LOBBY
 62
 10
 10
       19.05000
 20
       53.34000
 30
        0.76200
 40
        0.20000
999
FLOOR 1 OFFICE 1:DayRefPt:1
  0
CIRCLE
  8
FLOOR_1_OFFICE_1
 62
 10
 10
       39.92860
 20
      102.10800
 30
        0.76200
 40
        0.20000
999
FLOOR 1 OFFICE 2:DayRefPt:1
  0
CIRCLE
  8
FLOOR_1_OFFICE_2
 62
 10
 10
       85.64900
 20
      106.98460
 30
        0.76200
 40
        0.20000
999
FLOOR 1 OFFICE 3:DayRefPt:1
  0
CIRCLE
  8
FLOOR_1_OFFICE_3
 62
 10
 10
      147.06600
 20
       62.02700
 30
        0.76200
 40
        0.20000
999
FLOOR 1 OFFICE 3 PERIMETER 1:DayRefPt:1
  0
CIRCLE
  8
FLOOR_1_OFFICE_3_PERIMETER_1
 62
 10
 10
      148.20900
 20
       80.61960
 30
        0.76200
 40
        0.20000
999
FLOOR 1 OFFICE 3 PERIMETER 2:DayRefPt:1
  0
CIRCLE
  8
FLOOR_1_OFFICE_3_PERIMETER_2
 62
 10
 10
      177.54600
 20
       62.02700
 30
        0.76200
 40
        0.20000
999
FLOOR 1 OFFICE 3 PERIMETER 3:DayRefPt:1
  0
CIRCLE
  8
FLOOR_1_OFFICE_3_PERIMETER_3
 62
 10
 10
      148.20900
 20
       43.43400
 30
        0.76200
 40
        0.20000
999
FLOOR 1 RECEPTION:DayRefPt:1
  0
CIRCLE
  8
FLOOR_1_RECEPTION
 62
 10
 10
        2.13400
 20
       64.00800
 30
        0.76200
 40
        0.20000
999
FLOOR 2 CORRIDOR:DayRefPt:1
  0
CIRCLE
  8
FLOOR_2_CORRIDOR
 62
 10
 10
      116.12900
 20
       65.53200
 30
        3.81000
 40
        0.20000
999
FLOOR 2 ELEVATOR:DayRefPt:1
  0
CIRCLE
  8
FLOOR_2_ELEVATOR
 62
 10
 10
      109.72800
 20
       53.34000
 30
        3.81000
 40
        0.20000
999
FLOOR 2 LOUNGE 2:DayRefPt:1
  0
CIRCLE
  8
FLOOR_2_LOUNGE_2
 62
 10
 10
      176.02200
 20
       46.48200
 30
        3.81000
 40
        0.20000
999
FLOOR 2 NURSE STATION 2:DayRefPt:1
  0
CIRCLE
  8
FLOOR_2_NURSE_STATION_2
 62
 10
 10
      164.59200
 20
       60.96000
 30
        3.81000
 40
        0.20000
999
FLOOR 2 OFFICE 2:DayRefPt:1
  0
CIRCLE
  8
FLOOR_2_OFFICE_2
 62
 10
 10
      109.72800
 20
       78.02860
 30
        3.81000
 40
        0.20000
999
FLOOR 2 OFFICE 4:DayRefPt:1
  0
CIRCLE
  8
FLOOR_2_OFFICE_4
 62
 10
 10
      134.11200
 20
       46.48200
 30
        3.81000
 40
        0.20000
999
FLOOR 2 RECEPTION:DayRefPt:1
  0
CIRCLE
  8
FLOOR_2_RECEPTION
 62
 10
 10
      156.97200
 20
       46.48200
 30
        3.81000
 40
        0.20000
999
FLOOR 2 WAITING:DayRefPt:1
  0
CIRCLE
  8
FLOOR_2_WAITING
 62
 10
 10
        4.57200
 20
       96.01200
 30
        3.81000
 40
        0.20000
999
FLOOR 3 ELEVATOR:DayRefPt:1
  0
CIRCLE
  8
FLOOR_3_ELEVATOR
 62
 10
 10
      109.72800
 20
       53.34000
 30
        6.85800
 40
        0.20000
999
FLOOR 3 NURSE STATION 1:DayRefPt:1
  0
CIRCLE
  8
FLOOR_3_NURSE_STATION_1
 62
 10
 10
       81.07660
 20
       70.40900
 30
        6.85800
 40
        0.20000
999
FLOOR 3 NURSE STATION 2:DayRefPt:1
  0
CIRCLE
  8
FLOOR_3_NURSE_STATION_2
 62
 10
 10
       82.29600
 20
      125.57760
 30
        6.85800
 40
        0.20000
999
FLOOR 3 OFFICE:DayRefPt:1
  0
CIRCLE
  8
FLOOR_3_OFFICE
 62
 10
 10
       77.72400
 20
       96.62160
 30
        6.85800
 40
        0.20000
999
FLOOR 3 PATIENT CORRIDOR 1:DayRefPt:1
  0
CIRCLE
  8
FLOOR_3_PATIENT_CORRIDOR_1
 62
 10
 10
      116.12900
 20
       66.75100
 30
        6.85800
 40
        0.20000
999
FLOOR 3 PATIENT CORRIDOR 2:DayRefPt:1
  0
CIRCLE
  8
FLOOR_3_PATIENT_CORRIDOR_2
 62
 10
 10
      116.12860
 20
       74.06660
 30
        6.85800
 40
        0.20000
999
FLOOR 3 WAITING:DayRefPt:1
  0
CIRCLE
  8
FLOOR_3_WAITING
 62
 10
 10
       96.01200
 20
       87.93460
 30
        6.85800
 40
        0.20000
999
FLOOR 4-6 ELEVATOR:DayRefPt:1
  0
CIRCLE
  8
FLOOR_4-6_ELEVATOR
 62
 10
 10
      109.72800
 20
       53.34000
 30
       12.95400
 40
        0.20000
999
FLOOR 4-6 NURSE STATION:DayRefPt:1
  0
CIRCLE
  8
FLOOR_4-6_NURSE_STATION
 62
 10
 10
       81.07660
 20
       70.40920
 30
       12.95400
 40
        0.20000
999
FLOOR 4-6 OFFICE:DayRefPt:1
  0
CIRCLE
  8
FLOOR_4-6_OFFICE
 62
 10
 10
      109.72800
 20
       79.09560
 30
       12.95400
 40
        0.20000
999
FLOOR 4-6 PATIENT CORRIDOR 1:DayRefPt:1
  0
CIRCLE
  8
FLOOR_4-6_PATIENT_CORRIDOR_1
 62
 10
 10
      116.12900
 20
       66.75100
 30
       12.95400
 40
        0.20000
999
FLOOR 4-6 PATIENT CORRIDOR 2:DayRefPt:1
  0
CIRCLE
  8
FLOOR_4-6_PATIENT_CORRIDOR_2
 62
 10
 10
      116.12860
 20
       74.06660
 30
       12.95400
 40
        0.20000
999
FLOOR 7 ELEVATOR:DayRefPt:1
  0
CIRCLE
  8
FLOOR_7_ELEVATOR
 62
 10
 10
      109.72800
 20
       53.34000
 30
       19.05000
 40
        0.20000
999
FLOOR 7 NURSE STATION:DayRefPt:1
  0
CIRCLE
  8
FLOOR_7_NURSE_STATION
 62
 10
 10
       81.07660
 20
       70.40920
 30
       19.05000
 40
        0.20000
999
FLOOR 7 OFFICE:DayRefPt:1
  0
CIRCLE
  8
FLOOR_7_OFFICE
 62
 10
 10
      109.72800
 20
       79.09560
 30
       19.05000
 40
        0.20000
999
FLOOR 7 PATIENT CORRIDOR 1:DayRefPt:1
  0
CIRCLE
  8
FLOOR_7_PATIENT_CORRIDOR_1
 62
 10
 10
      116.12900
 20
       66.75100
 30
       19.05000
 40
        0.20000
999
FLOOR 7 PATIENT CORRIDOR 2:DayRefPt:1
  0
CIRCLE
  8
FLOOR_7_PATIENT_CORRIDOR_2
 62
 10
 10
      116.12860
 20
       74.06660
 30
       19.05000
 40
        0.20000
999
MOB FLOOR 1 PERIMETER 1:DayRefPt:1
  0
CIRCLE
  8
MOB_FLOOR_1_PERIMETER_1
 62
 10
 10
        2.28600
 20
       25.52700
 30
        0.76200
 40
        0.20000
999
MOB FLOOR 1 PERIMETER 2:DayRefPt:1
  0
CIRCLE
  8
MOB_FLOOR_1_PERIMETER_2
 62
 10
 10
       19.05000
 20
        2.28600
 30
        0.76200
 40
        0.20000
999
MOB FLOOR 1 PERIMETER 3:DayRefPt:1
  0
CIRCLE
  8
MOB_FLOOR_1_PERIMETER_3
 62
 10
 10
       35.81400
 20
       25.52700
 30
        0.76200
 40
        0.20000
999
MOB FLOOR 2-4 PERIMETER 1:DayRefPt:1
  0
CIRCLE
  8
MOB_FLOOR_2-4_PERIMETER_1
 62
 10
 10
        2.28600
 20
       24.38400
 30
        6.85800
 40
        0.20000
999
MOB FLOOR 2-4 PERIMETER 2:DayRefPt:1
  0
CIRCLE
  8
MOB_FLOOR_2-4_PERIMETER_2
 62
 10
 10
       19.05000
 20
        2.28600
 30
        6.85800
 40
        0.20000
999
MOB FLOOR 2-4 PERIMETER 3:DayRefPt:1
  0
CIRCLE
  8
MOB_FLOOR_2-4_PERIMETER_3
 62
 10
 10
       35.81400
 20
       24.38400
 30
        6.85800
 40
        0.20000
999
MOB FLOOR 2-4 PERIMETER 4:DayRefPt:1
  0
CIRCLE
  8
MOB_FLOOR_2-4_PERIMETER_4
 62
 10
 10
       19.05000
 20
       46.48200
 30
        6.85800
 40
        0.20000
999
MOB FLOOR 5 PERIMETER 1:DayRefPt:1
  0
CIRCLE
  8
MOB_FLOOR_5_PERIMETER_1
 62
 10
 10
        2.28600
 20
       24.38400
 30
       12.95400
 40
        0.20000
999
MOB FLOOR 5 PERIMETER 2:DayRefPt:1
  0
CIRCLE
  8
MOB_FLOOR_5_PERIMETER_2
 62
 10
 10
       19.05000
 20
        2.28600
 30
       12.95400
 40
        0.20000
999
MOB FLOOR 5 PERIMETER 3:DayRefPt:1
  0
CIRCLE
  8
MOB_FLOOR_5_PERIMETER_3
 62
 10
 10
       35.81400
 20
       24.38400
 30
       12.95400
 40
        0.20000
999
MOB FLOOR 5 PERIMETER 4:DayRefPt:1
  0
CIRCLE
  8
MOB_FLOOR_5_PERIMETER_4
 62
 10
 10
       19.05000
 20
       46.48200
 30
       12.95400
 40
        0.20000
999
FLOOR 1 CONFERENCE:DEDayRefPt:1
  0
CIRCLE
  8
FLOOR_1_CONFERENCE
 62
 10
 10
       76.50500
 20
       53.34000
 30
        0.76200
 40
        0.20000
999
FLOOR 1 DINING:DEDayRefPt:1
  0
CIRCLE
  8
FLOOR_1_DINING
 62
 10
 10
      109.72800
 20
       70.40860
 30
        0.76200
 40
        0.20000
999
FLOOR 1 ELEVATOR:DEDayRefPt:1
  0
CIRCLE
  8
FLOOR_1_ELEVATOR
 62
 10
 10
      109.72800
 20
       53.34000
 30
        0.76200
 40
        0.20000
999
FLOOR 1 LAUNDRY:DEDayRefPt:1
  0
CIRCLE
  8
FLOOR_1_LAUNDRY
 62
 10
 10
       87.47800
 20
      119.78600
 30
        0.76200
 40
        0.20000
999
FLOOR 1 LOBBY:DEDayRefPt:1
  0
CIRCLE
  8
FLOOR_1_LOBBY
 62
 10
 10
       19.05000
 20
       53.34000
 30
        0.76200
 40
        0.20000
999
FLOOR 1 OFFICE 1:DEDayRefPt:1
  0
CIRCLE
  8
FLOOR_1_OFFICE_1
 62
 10
 10
       39.92860
 20
      102.10800
 30
        0.76200
 40
        0.20000
999
FLOOR 1 OFFICE 2:DEDayRefPt:1
  0
CIRCLE
  8
FLOOR_1_OFFICE_2
 62
 10
 10
       85.64900
 20
      106.98460
 30
        0.76200
 40
        0.20000
999
FLOOR 1 OFFICE 3:DEDayRefPt:1
  0
CIRCLE
  8
FLOOR_1_OFFICE_3
 62
 10
 10
      147.06600
 20
       62.02700
 30
        0.76200
 40
        0.20000
999
FLOOR 1 OFFICE 3 PERIMETER 1:DEDayRefPt:1
  0
CIRCLE
  8
FLOOR_1_OFFICE_3_PERIMETER_1
 62
 10
 10
      148.20900
 20
       80.61960
 30
        0.76200
 40
        0.20000
999
FLOOR 1 OFFICE 3 PERIMETER 2:DEDayRefPt:1
  0
CIRCLE
  8
FLOOR_1_OFFICE_3_PERIMETER_2
 62
 10
 10
      177.54600
 20
       62.02700
 30
        0.76200
 40
        0.20000
999
FLOOR 1 OFFICE 3 PERIMETER 3:DEDayRefPt:1
  0
CIRCLE
  8
FLOOR_1_OFFICE_3_PERIMETER_3
 62
 10
 10
      148.20900
 20
       43.43400
 30
        0.76200
 40
        0.20000
999
FLOOR 1 RECEPTION:DEDayRefPt:1
  0
CIRCLE
  8
FLOOR_1_RECEPTION
 62
 10
 10
        2.13400
 20
       64.00800
 30
        0.76200
 40
        0.20000
999
FLOOR 2 CORRIDOR:DEDayRefPt:1
  0
CIRCLE
  8
FLOOR_2_CORRIDOR
 62
 10
 10
      116.12900
 20
       65.53200
 30
        3.81000
 40
        0.20000
999
FLOOR 2 ELEVATOR:DEDayRefPt:1
  0
CIRCLE
  8
FLOOR_2_ELEVATOR
 62
 10
 10
      109.72800
 20
       53.34000
 30
        3.81000
 40
        0.20000
999
FLOOR 2 LOUNGE 2:DEDayRefPt:1
  0
CIRCLE
  8
FLOOR_2_LOUNGE_2
 62
 10
 10
      176.02200
 20
       46.48200
 30
        3.81000
 40
        0.20000
999
FLOOR 2 NURSE STATION 2:DEDayRefPt:1
  0
CIRCLE
  8
FLOOR_2_NURSE_STATION_2
 62
 10
 10
      164.59200
 20
       60.96000
 30
        3.81000
 40
        0.20000
999
FLOOR 2 OFFICE 2:DEDayRefPt:1
  0
CIRCLE
  8
FLOOR_2_OFFICE_2
 62
 10
 10
      109.72800
 20
       78.02860
 30
        3.81000
 40
        0.20000
999
FLOOR 2 OFFICE 4:DEDayRefPt:1
  0
CIRCLE
  8
FLOOR_2_OFFICE_4
 62
 10
 10
      134.11200
 20
       46.48200
 30
        3.81000
 40
        0.20000
999
FLOOR 2 RECEPTION:DEDayRefPt:1
  0
CIRCLE
  8
FLOOR_2_RECEPTION
 62
 10
 10
      156.97200
 20
       46.48200
 30
        3.81000
 40
        0.20000
999
FLOOR 2 WAITING:DEDayRefPt:1
  0
CIRCLE
  8
FLOOR_2_WAITING
 62
 10
 10
        4.57200
 20
       96.01200
 30
        3.81000
 40
        0.20000
999
FLOOR 3 ELEVATOR:DEDayRefPt:1
  0
CIRCLE
  8
FLOOR_3_ELEVATOR
 62
 10
 10
      109.72800
 20
       53.34000
 30
        6.85800
 40
        0.20000
999
FLOOR 3 NURSE STATION 1:DEDayRefPt:1
  0
CIRCLE
  8
FLOOR_3_NURSE_STATION_1
 62
 10
 10
       81.07660
 20
       70.40900
 30
        6.85800
 40
        0.20000
999
FLOOR 3 NURSE STATION 2:DEDayRefPt:1
  0
CIRCLE
  8
FLOOR_3_NURSE_STATION_2
 62
 10
 10
       82.29600
 20
      125.57760
 30
        6.85800
 40
        0.20000
999
FLOOR 3 OFFICE:DEDayRefPt:1
  0
CIRCLE
  8
FLOOR_3_OFFICE
 62
 10
 10
       77.72400
 20
       96.62160
 30
        6.85800
 40
        0.20000
999
FLOOR 3 PATIENT CORRIDOR 1:DEDayRefPt:1
  0
CIRCLE
  8
FLOOR_3_PATIENT_CORRIDOR_1
 62
 10
 10
      116.12900
 20
       66.75100
 30
        6.85800
 40
        0.20000
999
FLOOR 3 PATIENT CORRIDOR 2:DEDayRefPt:1
  0
CIRCLE
  8
FLOOR_3_PATIENT_CORRIDOR_2
 62
 10
 10
      116.12860
 20
       74.06660
 30
        6.85800
 40
        0.20000
999
FLOOR 3 WAITING:DEDayRefPt:1
  0
CIRCLE
  8
FLOOR_3_WAITING
 62
 10
 10
       96.01200
 20
       87.93460
 30
        6.85800
 40
        0.20000
999
FLOOR 4-6 ELEVATOR:DEDayRefPt:1
  0
CIRCLE
  8
FLOOR_4-6_ELEVATOR
 62
 10
 10
      109.72800
 20
       53.34000
 30
       12.95400
 40
        0.20000
999
FLOOR 4-6 NURSE STATION:DEDayRefPt:1
  0
CIRCLE
  8
FLOOR_4-6_NURSE_STATION
 62
 10
 10
       81.07660
 20
       70.40920
 30
       12.95400
 40
        0.20000
999
FLOOR 4-6 OFFICE:DEDayRefPt:1
  0
CIRCLE
  8
FLOOR_4-6_OFFICE
 62
 10
 10
      109.72800
 20
       79.09560
 30
       12.95400
 40
        0.20000
999
FLOOR 4-6 PATIENT CORRIDOR 1:DEDayRefPt:1
  0
CIRCLE
  8
FLOOR_4-6_PATIENT_CORRIDOR_1
 62
 10
 10
      116.12900
 20
       66.75100
 30
       12.95400
 40
        0.20000
999
FLOOR 4-6 PATIENT CORRIDOR 2:DEDayRefPt:1
  0
CIRCLE
  8
FLOOR_4-6_PATIENT_CORRIDOR_2
 62
 10
 10
      116.12860
 20
       74.06660
 30
       12.95400
 40
        0.20000
999
FLOOR 7 ELEVATOR:DEDayRefPt:1
  0
CIRCLE
  8
FLOOR_7_ELEVATOR
 62
 10
 10
      109.72800
 20
       53.34000
 30
       19.05000
 40
        0.20000
999
FLOOR 7 NURSE STATION:DEDayRefPt:1
  0
CIRCLE
  8
FLOOR_7_NURSE_STATION
 62
 10
 10
       81.07660
 20
       70.40920
 30
       19.05000
 40
        0.20000
999
FLOOR 7 OFFICE:DEDayRefPt:1
  0
CIRCLE
  8
FLOOR_7_OFFICE
 62
 10
 10
      109.72800
 20
       79.09560
 30
       19.05000
 40
        0.20000
999
FLOOR 7 PATIENT CORRIDOR 1:DEDayRefPt:1
  0
CIRCLE
  8
FLOOR_7_PATIENT_CORRIDOR_1
 62
 10
 10
      116.12900
 20
       66.75100
 30
       19.05000
 40
        0.20000
999
FLOOR 7 PATIENT CORRIDOR 2:DEDayRefPt:1
  0
CIRCLE
  8
FLOOR_7_PATIENT_CORRIDOR_2
 62
 10
 10
      116.12860
 20
       74.06660
 30
       19.05000
 40
        0.20000
999
MOB FLOOR 1 PERIMETER 1:DEDayRefPt:1
  0
CIRCLE
  8
MOB_FLOOR_1_PERIMETER_1
 62
 10
 10
        2.28600
 20
       25.52700
 30
        0.76200
 40
        0.20000
999
MOB FLOOR 1 PERIMETER 2:DEDayRefPt:1
  0
CIRCLE
  8
MOB_FLOOR_1_PERIMETER_2
 62
 10
 10
       19.05000
 20
        2.28600
 30
        0.76200
 40
        0.20000
999
MOB FLOOR 1 PERIMETER 3:DEDayRefPt:1
  0
CIRCLE
  8
MOB_FLOOR_1_PERIMETER_3
 62
 10
 10
       35.81400
 20
       25.52700
 30
        0.76200
 40
        0.20000
999
MOB FLOOR 2-4 PERIMETER 1:DEDayRefPt:1
  0
CIRCLE
  8
MOB_FLOOR_2-4_PERIMETER_1
 62
 10
 10
        2.28600
 20
       24.38400
 30
        6.85800
 40
        0.20000
999
MOB FLOOR 2-4 PERIMETER 2:DEDayRefPt:1
  0
CIRCLE
  8
MOB_FLOOR_2-4_PERIMETER_2
 62
 10
 10
       19.05000
 20
        2.28600
 30
        6.85800
 40
        0.20000
999
MOB FLOOR 2-4 PERIMETER 3:DEDayRefPt:1
  0
CIRCLE
  8
MOB_FLOOR_2-4_PERIMETER_3
 62
 10
 10
       35.81400
 20
       24.38400
 30
        6.85800
 40
        0.20000
999
MOB FLOOR 2-4 PERIMETER 4:DEDayRefPt:1
  0
CIRCLE
  8
MOB_FLOOR_2-4_PERIMETER_4
 62
 10
 10
       19.05000
 20
       46.48200
 30
        6.85800
 40
        0.20000
999
MOB FLOOR 5 PERIMETER 1:DEDayRefPt:1
  0
CIRCLE
  8
MOB_FLOOR_5_PERIMETER_1
 62
 10
 10
        2.28600
 20
       24.38400
 30
       12.95400
 40
        0.20000
999
MOB FLOOR 5 PERIMETER 2:DEDayRefPt:1
  0
CIRCLE
  8
MOB_FLOOR_5_PERIMETER_2
 62
 10
 10
       19.05000
 20
        2.28600
 30
       12.95400
 40
        0.20000
999
MOB FLOOR 5 PERIMETER 3:DEDayRefPt:1
  0
CIRCLE
  8
MOB_FLOOR_5_PERIMETER_3
 62
 10
 10
       35.81400
 20
       24.38400
 30
       12.95400
 40
        0.20000
999
MOB FLOOR 5 PERIMETER 4:DEDayRefPt:1
  0
CIRCLE
  8
MOB_FLOOR_5_PERIMETER_4
 62
 10
 10
       19.05000
 20
       46.48200
 30
       12.95400
 40
        0.20000
  0
ENDSEC
  0
EOF
