Program Version,EnergyPlus, Version 9.4.0-eabe692fc2, YMD=2020.12.03 19:40
! <Version>, Version ID
 Version, 9.4
! <Timesteps per Hour>, #TimeSteps, Minutes per TimeStep {minutes}
 Timesteps per Hour,  4, 15
! <System Convergence Limits>, Minimum System TimeStep {minutes}, Max HVAC Iterations, Minimum Plant Iterations, Maximum Plant Iterations
 System Convergence Limits, 5, 25, 2, 8
! <Simulation Control>, Do Zone Sizing, Do System Sizing, Do Plant Sizing, Do Design Days, Do Weather Simulation, Do HVAC Sizing Simulation
 Simulation Control, Yes, Yes, Yes, Yes, No, No
! <Performance Precision Tradeoffs>, Use Coil Direct Simulation, Zone Radiant Exchange Algorithm, Override Mode, Number of Timestep In Hour, Force Euler Method, Minimum Number of Warmup Days, Force Suppress All Begin Environment Resets, Minimum System Timestep, MaxZoneTempDiff, MaxAllowedDelTemp
 Performance Precision Tradeoffs, No, ScriptF, Normal, 4, No, 1, No, 5.0, 0.300, 2.0000E-003
! <Output Reporting Tolerances>, Tolerance for Time Heating Setpoint Not Met, Tolerance for Zone Cooling Setpoint Not Met Time
 Output Reporting Tolerances, 1.000, 1.000, 
! <Site:GroundTemperature:BuildingSurface>,Jan{C},Feb{C},Mar{C},Apr{C},May{C},Jun{C},Jul{C},Aug{C},Sep{C},Oct{C},Nov{C},Dec{C}
 Site:GroundTemperature:BuildingSurface,  19.53,  19.50,  19.54,  19.60,  20.00,  21.64,  22.23,  22.38,  21.45,  20.12,  19.80,  19.63
! <Site:GroundTemperature:FCfactorMethod>,Jan{C},Feb{C},Mar{C},Apr{C},May{C},Jun{C},Jul{C},Aug{C},Sep{C},Oct{C},Nov{C},Dec{C}
 Site:GroundTemperature:FCfactorMethod,  -1.89,  -3.06,  -0.99,   2.23,  10.68,  17.20,  21.60,  22.94,  20.66,  15.60,   8.83,   2.56
! <Site:GroundTemperature:Shallow>,Jan{C},Feb{C},Mar{C},Apr{C},May{C},Jun{C},Jul{C},Aug{C},Sep{C},Oct{C},Nov{C},Dec{C}
 Site:GroundTemperature:Shallow,  13.00,  13.00,  13.00,  13.00,  13.00,  13.00,  13.00,  13.00,  13.00,  13.00,  13.00,  13.00
! <Site:GroundTemperature:Deep>,Jan{C},Feb{C},Mar{C},Apr{C},May{C},Jun{C},Jul{C},Aug{C},Sep{C},Oct{C},Nov{C},Dec{C}
 Site:GroundTemperature:Deep,  16.00,  16.00,  16.00,  16.00,  16.00,  16.00,  16.00,  16.00,  16.00,  16.00,  16.00,  16.00
! <Site:GroundReflectance>,Jan{dimensionless},Feb{dimensionless},Mar{dimensionless},Apr{dimensionless},May{dimensionless},Jun{dimensionless},Jul{dimensionless},Aug{dimensionless},Sep{dimensionless},Oct{dimensionless},Nov{dimensionless},Dec{dimensionless}
 Site:GroundReflectance,  0.20,  0.20,  0.20,  0.20,  0.20,  0.20,  0.20,  0.20,  0.20,  0.20,  0.20,  0.20
! <Site:GroundReflectance:SnowModifier>, Normal, Daylighting {dimensionless}
 Site:GroundReflectance:SnowModifier,   1.000,   1.000
! <Site:GroundReflectance:Snow>,Jan{dimensionless},Feb{dimensionless},Mar{dimensionless},Apr{dimensionless},May{dimensionless},Jun{dimensionless},Jul{dimensionless},Aug{dimensionless},Sep{dimensionless},Oct{dimensionless},Nov{dimensionless},Dec{dimensionless}
 Site:GroundReflectance:Snow,  0.20,  0.20,  0.20,  0.20,  0.20,  0.20,  0.20,  0.20,  0.20,  0.20,  0.20,  0.20
! <Site:GroundReflectance:Snow:Daylighting>,Jan{dimensionless},Feb{dimensionless},Mar{dimensionless},Apr{dimensionless},May{dimensionless},Jun{dimensionless},Jul{dimensionless},Aug{dimensionless},Sep{dimensionless},Oct{dimensionless},Nov{dimensionless},Dec{dimensionless}
 Site:GroundReflectance:Snow:Daylighting,  0.20,  0.20,  0.20,  0.20,  0.20,  0.20,  0.20,  0.20,  0.20,  0.20,  0.20,  0.20
! <Environment:Weather Station>,Wind Sensor Height Above Ground {m},Wind Speed Profile Exponent {},Wind Speed Profile Boundary Layer Thickness {m},Air Temperature Sensor Height Above Ground {m},Wind Speed Modifier Coefficient-Internal,Temperature Modifier Coefficient-Internal
Environment:Weather Station,10.000,0.140,270.000,1.500,1.586,9.750E-003
! <Site:Location>, Location Name, Latitude {N+/S- Deg}, Longitude {E+/W- Deg},  Time Zone Number {GMT+/-}, Elevation {m},  Standard Pressure at Elevation {Pa}, Standard RhoAir at Elevation
Site:Location,Chicago Ohare Intl Ap IL USA TMY3 WMO#=725300,41.98,-87.92,-6.00,201.00,98934,1.1759
! <Site Water Mains Temperature Information>,Calculation Method{},Water Mains Temperature Schedule Name{},Annual Average Outdoor Air Temperature{C},Maximum Difference In Monthly Average Outdoor Air Temperatures{deltaC},Fixed Default Water Mains Temperature{C}
Site Water Mains Temperature Information,Correlation,NA,9.69,28.10,NA
! <Building Information>, Building Name,North Axis {deg},Terrain,  Loads Convergence Tolerance Value,Temperature Convergence Tolerance Value,  Solar Distribution,Maximum Number of Warmup Days,Minimum Number of Warmup Days
 Building Information,Large Hospital TSD Low-Energy Model,0.000,City,6.00000E-002,0.20000,FullInteriorAndExterior,25,6
! <Inside Convection Algorithm>, Algorithm {Simple | TARP | CeilingDiffuser | AdaptiveConvectionAlgorithm}
Inside Convection Algorithm,TARP
! <Outside Convection Algorithm>, Algorithm {SimpleCombined | TARP | MoWitt | DOE-2 | AdaptiveConvectionAlgorithm}
Outside Convection Algorithm,DOE-2
! <Sky Radiance Distribution>, Value {Anisotropic}
Sky Radiance Distribution,Anisotropic
! <Zone Air Solution Algorithm>, Value {ThirdOrderBackwardDifference | AnalyticalSolution | EulerMethod}
 Zone Air Solution Algorithm, AnalyticalSolution
! <Zone Air Carbon Dioxide Balance Simulation>, Simulation {Yes/No}, Carbon Dioxide Concentration
 Zone Air Carbon Dioxide Balance Simulation, No,N/A
! <Zone Air Generic Contaminant Balance Simulation>, Simulation {Yes/No}, Generic Contaminant Concentration
 Zone Air Generic Contaminant Balance Simulation, No,N/A
! <Zone Air Mass Flow Balance Simulation>, Enforce Mass Balance, Adjust Zone Mixing, Adjust Zone Infiltration {AddInfiltration | AdjustInfiltration | None}, Infiltration Zones {MixingSourceZonesOnly | AllZones}
 Zone Air Mass Flow Balance Simulation, No,N/A,N/A,N/A
! <HVACSystemRootFindingAlgorithm>, Value {RegulaFalsi | Bisection | BisectionThenRegulaFalsi | RegulaFalsiThenBisection}
 HVACSystemRootFindingAlgorithm, RegulaFalsi
! <Environment:Site Atmospheric Variation>,Wind Speed Profile Exponent {},Wind Speed Profile Boundary Layer Thickness {m},Air Temperature Gradient Coefficient {K/m}
Environment:Site Atmospheric Variation,0.330,460.000,6.500000E-003
! <Surface Geometry>,Starting Corner,Vertex Input Direction,Coordinate System,Daylight Reference Point Coordinate System,Rectangular (Simple) Surface Coordinate System
 Surface Geometry,UpperLeftCorner,Counterclockwise,RelativeCoordinateSystem,RelativeCoordinateSystem,RelativeToZoneOrigin
! <Surface Heat Transfer Algorithm>, Value {CTF - ConductionTransferFunction | EMPD - MoisturePenetrationDepthConductionTransferFunction | CondFD - ConductionFiniteDifference | HAMT - CombinedHeatAndMoistureFiniteElement} - Description,Inside Surface Max Temperature Limit{C}, Surface Convection Coefficient Lower Limit {W/m2-K}, Surface Convection Coefficient Upper Limit {W/m2-K}
Surface Heat Transfer Algorithm, CTF - ConductionTransferFunction,200,0.10,1000.0
! <Shading Summary>, Number of Fixed Detached Shades, Number of Building Detached Shades, Number of Attached Shades
 Shading Summary,0,0,50
! <Zone Summary>, Number of Zones, Number of Zone Surfaces, Number of SubSurfaces
 Zone Summary,130,1050,125
! <Zone Information>,Zone Name,North Axis {deg},Origin X-Coordinate {m},Origin Y-Coordinate {m},Origin Z-Coordinate {m},Centroid X-Coordinate {m},Centroid Y-Coordinate {m},Centroid Z-Coordinate {m},Type,Zone Multiplier,Zone List Multiplier,Minimum X {m},Maximum X {m},Minimum Y {m},Maximum Y {m},Minimum Z {m},Maximum Z {m},Ceiling Height {m},Volume {m3},Zone Inside Convection Algorithm {Simple-Detailed-CeilingDiffuser-TrombeWall},Zone Outside Convection Algorithm {Simple-Detailed-Tarp-MoWitt-DOE-2-BLAST}, Floor Area {m2},Exterior Gross Wall Area {m2},Exterior Net Wall Area {m2},Exterior Window Area {m2}, Number of Surfaces, Number of SubSurfaces, Number of Shading SubSurfaces,  Part of Total Building Area
 Zone Information, FLOOR 1 CAFE,0.0,100.58,16.76,0.00,93.12,70.41,1.52,1,1,1,85.65,100.58,57.91,82.91,0.00,3.05,3.05,1137.77,TARP,DOE-2,373.28,0.00,0.00,0.00,6,0,0,Yes
 Zone Information, FLOOR 1 CLEAN,0.0,27.43,41.15,0.00,23.77,79.25,1.52,1,1,1,20.12,27.43,76.20,82.30,0.00,3.05,3.05,135.92,TARP,DOE-2,44.59,0.00,0.00,0.00,6,0,0,Yes
 Zone Information, FLOOR 1 CONFERENCE,0.0,100.58,4.57,0.00,69.34,53.34,1.52,1,1,1,38.10,100.58,48.77,57.91,0.00,3.05,3.05,1741.49,TARP,DOE-2,571.35,190.45,114.27,76.18,7,1,2,Yes
 Zone Information, FLOOR 1 DINING,0.0,118.87,41.76,0.00,109.73,70.41,1.52,1,1,1,100.58,118.87,57.91,82.91,0.00,3.05,3.05,1393.19,TARP,DOE-2,457.08,55.74,33.45,22.30,6,1,0,Yes
 Zone Information, FLOOR 1 ELEVATOR,0.0,118.87,7.62,0.00,109.73,53.34,1.52,1,1,1,100.58,118.87,48.77,57.91,0.00,3.05,3.05,509.70,TARP,DOE-2,167.23,55.74,33.45,22.30,6,1,2,Yes
 Zone Information, FLOOR 1 EXAM,0.0,0.00,41.15,0.00,10.06,76.20,1.52,1,1,1,0.00,20.12,70.10,82.30,0.00,3.05,3.05,747.56,TARP,DOE-2,245.26,37.16,22.30,14.86,6,1,0,Yes
 Zone Information, FLOOR 1 FOOD STORAGE,0.0,85.65,16.76,0.00,78.18,64.16,1.52,1,1,1,70.71,85.65,57.91,70.41,0.00,3.05,3.05,568.89,TARP,DOE-2,186.64,0.00,0.00,0.00,6,0,0,Yes
 Zone Information, FLOOR 1 GAS STORAGE,0.0,74.37,74.68,0.00,72.54,123.75,1.52,1,1,1,70.71,74.37,115.82,131.67,0.00,3.05,3.05,176.70,TARP,DOE-2,57.97,11.15,6.69,4.46,6,1,0,Yes
 Zone Information, FLOOR 1 IMAGING,0.0,27.43,28.96,0.00,15.85,67.06,1.52,1,1,1,4.27,27.43,64.01,70.10,0.00,3.05,3.05,430.42,TARP,DOE-2,141.21,0.00,0.00,0.00,6,0,0,Yes
 Zone Information, FLOOR 1 KITCHEN,0.0,85.65,29.26,0.00,78.18,76.66,1.52,1,1,1,70.71,85.65,70.41,82.91,0.00,3.05,3.05,568.89,TARP,DOE-2,186.64,0.00,0.00,0.00,6,0,0,Yes
 Zone Information, FLOOR 1 LAB 1,0.0,52.43,47.24,0.00,44.81,82.30,1.52,1,1,1,37.19,52.43,76.20,88.39,0.00,3.05,3.05,566.34,TARP,DOE-2,185.81,0.00,0.00,0.00,6,0,0,Yes
 Zone Information, FLOOR 1 LAB 2,0.0,100.58,41.76,0.00,85.65,90.53,1.52,1,1,1,70.71,100.58,82.91,98.15,0.00,3.05,3.05,1387.53,TARP,DOE-2,455.22,46.45,27.87,18.58,6,1,0,Yes
 Zone Information, FLOOR 1 LAUNDRY,0.0,100.58,74.68,0.00,87.48,119.79,1.52,1,1,1,74.37,100.58,115.82,123.75,0.00,3.05,3.05,633.16,TARP,DOE-2,207.73,24.15,14.49,9.66,6,1,0,Yes
 Zone Information, FLOOR 1 LOBBY,0.0,0.00,7.62,0.00,19.05,53.34,1.52,1,1,1,0.00,38.10,48.77,57.91,0.00,3.05,3.05,1061.88,TARP,DOE-2,348.39,27.87,16.72,11.15,8,1,0,Yes
 Zone Information, FLOOR 1 LOUNGE,0.0,37.19,47.24,0.00,32.31,82.30,1.52,1,1,1,27.43,37.19,76.20,88.39,0.00,3.05,3.05,362.46,TARP,DOE-2,118.92,0.00,0.00,0.00,6,0,0,Yes
 Zone Information, FLOOR 1 MECH 1,0.0,0.00,74.68,0.00,13.72,102.11,1.52,1,1,1,0.00,27.43,88.39,115.82,0.00,3.05,3.05,2293.66,TARP,DOE-2,752.51,167.23,100.33,66.89,6,2,0,Yes
 Zone Information, FLOOR 1 MECH 2,0.0,70.71,129.54,0.00,61.57,143.26,1.52,1,1,1,52.43,70.71,115.82,170.69,0.00,3.05,3.05,3058.22,TARP,DOE-2,1003.35,341.88,205.13,136.75,8,3,0,Yes
 Zone Information, FLOOR 1 OFFICE 1,0.0,52.43,70.10,0.00,39.93,102.11,1.52,1,1,1,27.43,52.43,88.39,115.82,0.00,3.05,3.05,2089.78,TARP,DOE-2,685.62,76.18,45.71,30.47,6,1,0,Yes
 Zone Information, FLOOR 1 OFFICE 2,0.0,100.58,57.00,0.00,85.65,106.98,1.52,1,1,1,70.71,100.58,98.15,115.82,0.00,3.05,3.05,1609.53,TARP,DOE-2,528.06,53.88,32.33,21.55,6,1,0,Yes
 Zone Information, FLOOR 1 OFFICE 3,0.0,175.26,4.57,0.00,147.07,62.03,1.52,1,1,1,118.87,175.26,45.72,78.33,0.00,3.05,3.05,5605.32,TARP,DOE-2,1839.02,9.29,5.57,3.72,7,1,0,Yes
 Zone Information, FLOOR 1 OFFICE 3 PERIMETER 1,0.0,179.83,41.76,0.00,148.42,80.67,1.52,1,1,1,118.87,179.83,78.33,82.91,0.00,3.05,3.05,817.65,TARP,DOE-2,268.26,185.81,111.48,74.32,6,1,0,Yes
 Zone Information, FLOOR 1 OFFICE 3 PERIMETER 2,0.0,179.83,0.00,0.00,177.70,62.03,1.52,1,1,1,175.26,179.83,41.15,82.91,0.00,3.05,3.05,518.20,TARP,DOE-2,170.01,127.28,76.37,50.91,6,1,0,Yes
 Zone Information, FLOOR 1 OFFICE 3 PERIMETER 3,0.0,118.87,0.00,0.00,148.42,43.38,1.52,1,1,1,118.87,179.83,41.15,45.72,0.00,3.05,3.05,817.65,TARP,DOE-2,268.26,199.74,119.84,79.90,6,2,2,Yes
 Zone Information, FLOOR 1 PATIENT,0.0,0.00,47.24,0.00,13.72,85.34,1.52,1,1,1,0.00,27.43,82.30,88.39,0.00,3.05,3.05,509.70,TARP,DOE-2,167.23,18.58,11.15,7.43,6,1,0,Yes
 Zone Information, FLOOR 1 PHARMACY,0.0,70.71,16.76,0.00,61.57,73.15,1.52,1,1,1,52.43,70.71,57.91,88.39,0.00,3.05,3.05,1699.01,TARP,DOE-2,557.42,0.00,0.00,0.00,6,0,0,Yes
 Zone Information, FLOOR 1 PHYSICAL THERAPY,0.0,52.43,34.14,0.00,39.93,67.06,1.52,1,1,1,27.43,52.43,57.91,76.20,0.00,3.05,3.05,1393.19,TARP,DOE-2,457.08,0.00,0.00,0.00,6,0,0,Yes
 Zone Information, FLOOR 1 RECEIVING,0.0,100.58,90.53,0.00,87.48,127.71,1.52,1,1,1,74.37,100.58,123.75,131.67,0.00,3.05,3.05,633.16,TARP,DOE-2,207.73,104.05,62.43,41.62,6,2,0,Yes
 Zone Information, FLOOR 1 RECEPTION,0.0,0.00,28.96,0.00,2.13,64.01,1.52,1,1,1,0.00,4.27,57.91,70.10,0.00,3.05,3.05,158.57,TARP,DOE-2,52.03,37.16,22.30,14.86,6,1,0,Yes
 Zone Information, FLOOR 1 SOIL,0.0,27.43,34.14,0.00,23.77,73.15,1.52,1,1,1,20.12,27.43,70.10,76.20,0.00,3.05,3.05,135.92,TARP,DOE-2,44.59,0.00,0.00,0.00,6,0,0,Yes
 Zone Information, FLOOR 1 STORAGE,0.0,70.71,47.24,0.00,61.57,102.11,1.52,1,1,1,52.43,70.71,88.39,115.82,0.00,3.05,3.05,1529.11,TARP,DOE-2,501.68,0.00,0.00,0.00,6,0,0,Yes
 Zone Information, FLOOR 1 WAITING,0.0,27.43,22.86,0.00,15.85,60.96,1.52,1,1,1,4.27,27.43,57.91,64.01,0.00,3.05,3.05,430.42,TARP,DOE-2,141.21,0.00,0.00,0.00,6,0,0,Yes
 Zone Information, FLOOR 2 CHAPEL,0.0,73.15,7.62,0.00,62.79,53.34,4.57,1,1,1,52.43,73.15,48.77,57.91,3.05,6.10,3.05,577.66,TARP,DOE-2,189.52,91.04,54.63,36.42,6,2,2,Yes
 Zone Information, FLOOR 2 CLEAN 1,0.0,33.83,67.36,0.00,30.63,105.00,4.57,1,1,1,27.43,33.83,101.50,108.51,3.05,6.10,3.05,136.77,TARP,DOE-2,44.87,0.00,0.00,0.00,6,0,0,Yes
 Zone Information, FLOOR 2 CLEAN 2,0.0,131.06,30.78,0.00,128.02,74.37,4.57,1,1,1,124.97,131.06,71.93,76.81,3.05,6.10,3.05,90.61,TARP,DOE-2,29.73,0.00,0.00,0.00,6,0,0,Yes
 Zone Information, FLOOR 2 CORRIDOR,0.0,179.83,22.86,0.00,100.58,65.53,4.57,1,1,1,21.34,179.83,64.01,67.06,3.05,6.10,3.05,1472.48,TARP,DOE-2,483.10,9.29,5.57,3.72,7,1,0,Yes
 Zone Information, FLOOR 2 ELEVATOR,0.0,118.87,7.62,0.00,109.73,53.34,4.57,1,1,1,100.58,118.87,48.77,57.91,3.05,6.10,3.05,509.70,TARP,DOE-2,167.23,55.74,33.45,22.30,6,1,2,Yes
 Zone Information, FLOOR 2 EXAM 1,0.0,0.00,16.76,0.00,10.67,67.06,4.57,1,1,1,0.00,21.34,57.91,76.20,3.05,6.10,3.05,1189.31,TARP,DOE-2,390.19,120.77,72.47,48.31,6,2,2,Yes
 Zone Information, FLOOR 2 EXAM 2,0.0,22.86,53.34,0.00,16.00,86.87,4.57,1,1,1,9.14,22.86,82.30,91.44,3.05,6.10,3.05,382.28,TARP,DOE-2,125.42,0.00,0.00,0.00,6,0,0,Yes
 Zone Information, FLOOR 2 EXAM 3,0.0,100.58,25.91,0.00,86.87,73.91,4.57,1,1,1,73.15,100.58,67.06,80.77,3.05,6.10,3.05,1146.83,TARP,DOE-2,376.26,0.00,0.00,0.00,6,0,0,Yes
 Zone Information, FLOOR 2 EXAM 4,0.0,149.35,10.67,0.00,134.11,57.91,4.57,1,1,1,118.87,149.35,51.82,64.01,3.05,6.10,3.05,1132.67,TARP,DOE-2,371.61,0.00,0.00,0.00,7,0,0,Yes
 Zone Information, FLOOR 2 GIFT SHOP,0.0,91.44,7.62,0.00,82.30,53.34,4.57,1,1,1,73.15,91.44,48.77,57.91,3.05,6.10,3.05,509.70,TARP,DOE-2,167.23,55.74,33.45,22.30,6,1,2,Yes
 Zone Information, FLOOR 2 IMAGING 1,0.0,44.81,35.05,0.00,33.07,71.63,4.57,1,1,1,21.34,44.81,67.06,76.20,3.05,6.10,3.05,654.12,TARP,DOE-2,214.61,0.00,0.00,0.00,6,0,0,Yes
 Zone Information, FLOOR 2 IMAGING 2,0.0,73.15,16.76,0.00,47.24,60.96,4.57,1,1,1,21.34,73.15,57.91,64.01,3.05,6.10,3.05,962.77,TARP,DOE-2,315.87,157.94,94.76,63.18,7,1,2,Yes
 Zone Information, FLOOR 2 IMAGING 3,0.0,173.74,35.66,0.00,149.35,79.86,4.57,1,1,1,118.87,179.83,76.81,82.91,3.05,6.10,3.05,1132.67,TARP,DOE-2,371.61,204.39,122.63,81.75,6,2,0,Yes
 Zone Information, FLOOR 2 LAB 1,0.0,44.81,53.34,0.00,36.12,88.39,4.57,1,1,1,27.43,44.81,82.30,94.49,3.05,6.10,3.05,645.62,TARP,DOE-2,211.82,0.00,0.00,0.00,6,0,0,Yes
 Zone Information, FLOOR 2 LAB 2,0.0,73.15,39.62,0.00,62.79,80.77,4.57,1,1,1,52.43,73.15,73.15,88.39,3.05,6.10,3.05,962.77,TARP,DOE-2,315.87,0.00,0.00,0.00,7,0,0,Yes
 Zone Information, FLOOR 2 LOCKERS,0.0,52.43,44.20,0.00,48.62,89.92,4.57,1,1,1,44.81,52.43,85.34,94.49,3.05,6.10,3.05,212.38,TARP,DOE-2,69.68,0.00,0.00,0.00,6,0,0,Yes
 Zone Information, FLOOR 2 LOUNGE 1,0.0,118.87,25.91,0.00,109.73,70.10,4.57,1,1,1,100.58,118.87,67.06,73.15,3.05,6.10,3.05,339.80,TARP,DOE-2,111.48,0.00,0.00,0.00,6,0,0,Yes
 Zone Information, FLOOR 2 LOUNGE 2,0.0,179.83,0.00,0.00,176.02,46.48,4.57,1,1,1,172.21,179.83,41.15,51.82,3.05,6.10,3.05,247.77,TARP,DOE-2,81.29,55.74,33.45,22.30,6,2,2,Yes
 Zone Information, FLOOR 2 NURSE STATION 1,0.0,27.43,67.36,0.00,25.15,95.40,4.57,1,1,1,22.86,27.43,82.30,108.51,3.05,6.10,3.05,365.29,TARP,DOE-2,119.84,0.00,0.00,0.00,6,0,0,Yes
 Zone Information, FLOOR 2 NURSE STATION 2,0.0,179.83,10.67,0.00,164.59,57.91,4.57,1,1,1,149.35,179.83,51.82,64.01,3.05,6.10,3.05,1132.67,TARP,DOE-2,371.61,37.16,22.30,14.86,7,1,0,Yes
 Zone Information, FLOOR 2 OFFICE 1,0.0,27.43,41.15,0.00,26.97,79.25,4.57,1,1,1,9.14,44.81,76.20,82.30,3.05,6.10,3.05,662.61,TARP,DOE-2,217.39,0.00,0.00,0.00,6,0,0,Yes
 Zone Information, FLOOR 2 OFFICE 2,0.0,118.87,41.76,0.00,109.73,78.03,4.57,1,1,1,100.58,118.87,73.15,82.91,3.05,6.10,3.05,543.68,TARP,DOE-2,178.37,55.74,33.45,22.30,6,1,0,Yes
 Zone Information, FLOOR 2 OFFICE 3,0.0,100.58,16.76,0.00,96.01,60.96,4.57,1,1,1,73.15,118.87,57.91,64.01,3.05,6.10,3.05,849.51,TARP,DOE-2,278.71,0.00,0.00,0.00,6,0,0,Yes
 Zone Information, FLOOR 2 OFFICE 4,0.0,149.35,0.00,0.00,134.11,46.48,4.57,1,1,1,118.87,149.35,41.15,51.82,3.05,6.10,3.05,991.09,TARP,DOE-2,325.16,125.42,75.25,50.17,6,2,2,Yes
 Zone Information, FLOOR 2 OPERATING,0.0,100.58,131.67,3.05,76.50,113.08,4.57,1,1,1,52.43,100.58,94.49,131.67,3.05,6.10,3.05,5458.36,TARP,DOE-2,1790.80,314.01,188.41,125.60,8,3,0,Yes
 Zone Information, FLOOR 2 PACU,0.0,100.58,39.62,0.00,86.87,87.63,4.57,1,1,1,73.15,100.58,80.77,94.49,3.05,6.10,3.05,1146.83,TARP,DOE-2,376.26,35.30,21.18,14.12,7,1,0,Yes
 Zone Information, FLOOR 2 PATIENT 1,0.0,52.43,74.68,0.00,30.78,112.17,4.57,1,1,1,9.14,52.43,108.51,115.82,3.05,6.10,3.05,965.04,TARP,DOE-2,316.61,131.92,79.15,52.77,6,1,0,Yes
 Zone Information, FLOOR 2 PATIENT 2,0.0,52.43,53.34,0.00,43.13,101.50,4.57,1,1,1,33.83,52.43,94.49,108.51,3.05,6.10,3.05,794.57,TARP,DOE-2,260.69,0.00,0.00,0.00,6,0,0,Yes
 Zone Information, FLOOR 2 PROCEDURE 1,0.0,22.86,67.36,0.00,16.00,99.97,4.57,1,1,1,9.14,22.86,91.44,108.51,3.05,6.10,3.05,713.58,TARP,DOE-2,234.12,0.00,0.00,0.00,6,0,0,Yes
 Zone Information, FLOOR 2 PROCEDURE 2,0.0,73.15,25.91,0.00,62.79,70.10,4.57,1,1,1,52.43,73.15,67.06,73.15,3.05,6.10,3.05,385.11,TARP,DOE-2,126.35,0.00,0.00,0.00,6,0,0,Yes
 Zone Information, FLOOR 2 RECEPTION,0.0,164.59,10.67,0.00,156.97,46.48,4.57,1,1,1,149.35,164.59,41.15,51.82,3.05,6.10,3.05,495.54,TARP,DOE-2,162.58,46.45,27.87,18.58,6,1,2,Yes
 Zone Information, FLOOR 2 RESTROOM 1,0.0,179.83,25.91,0.00,176.78,71.93,4.57,1,1,1,173.74,179.83,67.06,76.81,3.05,6.10,3.05,181.23,TARP,DOE-2,59.46,29.73,17.84,11.89,6,1,0,Yes
 Zone Information, FLOOR 2 RESTROOM 2,0.0,100.58,7.62,0.00,96.01,53.34,4.57,1,1,1,91.44,100.58,48.77,57.91,3.05,6.10,3.05,254.85,TARP,DOE-2,83.61,27.87,16.72,11.15,6,1,2,Yes
 Zone Information, FLOOR 2 SOIL 1,0.0,27.43,53.34,0.00,30.63,97.99,4.57,1,1,1,27.43,33.83,94.49,101.50,3.05,6.10,3.05,136.77,TARP,DOE-2,44.87,0.00,0.00,0.00,6,0,0,Yes
 Zone Information, FLOOR 2 SOIL 2,0.0,131.06,25.91,0.00,128.02,69.49,4.57,1,1,1,124.97,131.06,67.06,71.93,3.05,6.10,3.05,90.61,TARP,DOE-2,29.73,0.00,0.00,0.00,6,0,0,Yes
 Zone Information, FLOOR 2 STERILIZING,0.0,73.15,47.24,0.00,62.79,91.44,4.57,1,1,1,52.43,73.15,88.39,94.49,3.05,6.10,3.05,385.11,TARP,DOE-2,126.35,0.00,0.00,0.00,6,0,0,Yes
 Zone Information, FLOOR 2 STORAGE 1,0.0,52.43,25.91,0.00,48.62,76.20,4.57,1,1,1,44.81,52.43,67.06,85.34,3.05,6.10,3.05,424.75,TARP,DOE-2,139.35,0.00,0.00,0.00,6,0,0,Yes
 Zone Information, FLOOR 2 STORAGE 2,0.0,124.97,25.91,0.00,121.92,71.93,4.57,1,1,1,118.87,124.97,67.06,76.81,3.05,6.10,3.05,181.23,TARP,DOE-2,59.46,0.00,0.00,0.00,6,0,0,Yes
 Zone Information, FLOOR 2 TRAUMA,0.0,173.74,25.91,0.00,152.40,71.93,4.57,1,1,1,131.06,173.74,67.06,76.81,3.05,6.10,3.05,1268.59,TARP,DOE-2,416.21,0.00,0.00,0.00,6,0,0,Yes
 Zone Information, FLOOR 2 TRIAGE,0.0,172.21,0.00,0.00,168.40,46.48,4.57,1,1,1,164.59,172.21,41.15,51.82,3.05,6.10,3.05,247.77,TARP,DOE-2,81.29,23.23,13.94,9.29,6,1,2,Yes
 Zone Information, FLOOR 2 WAITING,0.0,0.00,74.68,0.00,4.57,96.01,4.57,1,1,1,0.00,9.14,76.20,115.82,3.05,6.10,3.05,1104.36,TARP,DOE-2,362.32,148.64,89.19,59.46,6,2,0,Yes
 Zone Information, FLOOR 3 CLEAN,0.0,112.78,16.76,0.00,115.82,61.72,7.62,1,1,1,112.78,118.87,57.91,65.53,6.10,9.14,3.05,141.58,TARP,DOE-2,46.45,0.00,0.00,0.00,6,0,0,Yes
 Zone Information, FLOOR 3 ELEVATOR,0.0,118.87,7.62,0.00,109.73,53.34,7.62,1,1,1,100.58,118.87,48.77,57.91,6.10,9.14,3.05,509.70,TARP,DOE-2,167.23,111.48,66.89,44.59,6,3,2,Yes
 Zone Information, FLOOR 3 EXAM,0.0,100.58,26.82,0.00,86.87,96.62,7.62,1,1,1,82.30,91.44,82.91,110.34,6.10,9.14,3.05,764.55,TARP,DOE-2,250.84,0.00,0.00,0.00,6,0,0,Yes
 Zone Information, FLOOR 3 ICU,0.0,52.43,41.76,0.00,96.01,121.01,7.62,1,1,1,91.44,100.58,110.34,131.67,6.10,9.14,3.05,594.65,TARP,DOE-2,195.10,92.90,55.74,37.16,6,2,0,Yes
 Zone Information, FLOOR 3 NURSE STATION 1,0.0,52.43,16.76,0.00,81.08,70.41,7.62,1,1,1,52.43,109.73,67.97,72.85,6.10,9.14,3.05,851.77,TARP,DOE-2,279.45,14.86,8.92,5.95,6,1,0,Yes
 Zone Information, FLOOR 3 NURSE STATION 2,0.0,73.15,90.53,6.10,82.30,125.58,7.62,1,1,1,73.15,91.44,119.48,131.67,6.10,9.14,3.05,679.60,TARP,DOE-2,222.97,92.90,55.74,37.16,6,2,0,Yes
 Zone Information, FLOOR 3 NURSERY,0.0,83.21,41.76,0.00,96.01,105.31,7.62,1,1,1,91.44,100.58,100.28,110.34,6.10,9.14,3.05,280.34,TARP,DOE-2,91.97,30.66,18.40,12.26,6,1,0,Yes
 Zone Information, FLOOR 3 OFFICE,0.0,73.15,55.47,6.10,77.72,96.62,7.62,1,1,1,73.15,82.30,82.91,110.34,6.10,9.14,3.05,764.55,TARP,DOE-2,250.84,83.61,50.17,33.45,6,1,0,Yes
 Zone Information, FLOOR 3 OPERATING,0.0,69.19,16.76,0.00,82.30,114.91,7.62,1,1,1,73.15,91.44,110.34,119.48,6.10,9.14,3.05,509.73,TARP,DOE-2,167.23,27.87,16.72,11.15,6,1,0,Yes
 Zone Information, FLOOR 3 PATIENT 1,0.0,179.83,16.76,0.00,149.35,61.72,7.62,1,1,1,118.87,179.83,57.91,65.53,6.10,9.14,3.05,1415.84,TARP,DOE-2,464.52,209.03,125.42,83.61,6,2,2,Yes
 Zone Information, FLOOR 3 PATIENT 2,0.0,179.83,41.76,0.00,149.35,79.10,7.62,1,1,1,118.87,179.83,75.29,82.91,6.10,9.14,3.05,1415.84,TARP,DOE-2,464.52,209.03,125.42,83.61,6,2,0,Yes
 Zone Information, FLOOR 3 PATIENT 3,0.0,52.43,41.76,0.00,76.50,79.10,7.62,1,1,1,52.43,100.58,75.29,82.91,6.10,9.14,3.05,1118.52,TARP,DOE-2,366.97,86.40,51.84,34.56,7,2,0,Yes
 Zone Information, FLOOR 3 PATIENT 4,0.0,52.43,24.38,0.00,76.50,61.72,7.62,1,1,1,52.43,100.58,57.91,65.53,6.10,9.14,3.05,1118.52,TARP,DOE-2,366.97,170.01,102.01,68.00,6,2,2,Yes
 Zone Information, FLOOR 3 PATIENT CORRIDOR 1,0.0,179.83,24.38,0.00,116.13,66.75,7.62,1,1,1,52.43,179.83,65.53,67.97,6.10,9.14,3.05,946.91,TARP,DOE-2,310.67,14.86,8.92,5.95,6,2,0,Yes
 Zone Information, FLOOR 3 PATIENT CORRIDOR 2,0.0,52.43,34.14,0.00,116.13,74.07,7.62,1,1,1,52.43,179.83,72.85,75.29,6.10,9.14,3.05,946.91,TARP,DOE-2,310.67,14.86,8.92,5.95,6,2,0,Yes
 Zone Information, FLOOR 3 PROCEDURE,0.0,90.53,41.76,0.00,96.01,96.62,7.62,1,1,1,91.44,100.58,92.96,100.28,6.10,9.14,3.05,203.88,TARP,DOE-2,66.89,22.30,13.38,8.92,6,1,0,Yes
 Zone Information, FLOOR 3 SOIL,0.0,100.58,16.76,0.00,106.68,61.72,7.62,1,1,1,100.58,112.78,57.91,65.53,6.10,9.14,3.05,283.17,TARP,DOE-2,92.90,0.00,0.00,0.00,6,0,0,Yes
 Zone Information, FLOOR 3 SUPPLY,0.0,179.83,26.82,0.00,144.78,70.41,7.62,1,1,1,109.73,179.83,67.97,72.85,6.10,9.14,3.05,1042.06,TARP,DOE-2,341.88,14.86,8.92,5.95,6,1,0,Yes
 Zone Information, FLOOR 3 TRIAGE,0.0,100.58,16.76,0.00,109.73,79.10,7.62,1,1,1,100.58,118.87,75.29,82.91,6.10,9.14,3.05,424.75,TARP,DOE-2,139.35,55.74,33.45,22.30,6,1,0,Yes
 Zone Information, FLOOR 3 WAITING,0.0,92.96,41.76,0.00,96.01,87.93,7.62,1,1,1,91.44,100.58,82.91,92.96,6.10,9.14,3.05,280.34,TARP,DOE-2,91.97,30.66,18.40,12.26,6,1,0,Yes
 Zone Information, FLOOR 4-6 CLEAN,0.0,112.78,16.76,0.00,115.82,61.72,13.72,1,3,1,112.78,118.87,57.91,65.53,12.19,15.24,3.05,141.58,TARP,DOE-2,46.45,0.00,0.00,0.00,6,0,0,Yes
 Zone Information, FLOOR 4-6 ELEVATOR,0.0,118.87,7.62,0.00,109.73,53.34,13.72,1,3,1,100.58,118.87,48.77,57.91,12.19,15.24,3.05,509.70,TARP,DOE-2,167.23,111.48,66.89,44.59,6,3,2,Yes
 Zone Information, FLOOR 4-6 NURSE STATION,0.0,52.43,31.70,0.00,81.08,70.41,13.72,1,3,1,52.43,109.73,67.97,72.85,12.19,15.24,3.05,851.77,TARP,DOE-2,279.45,14.86,8.92,5.95,6,1,0,Yes
 Zone Information, FLOOR 4-6 OFFICE,0.0,118.87,41.76,0.00,109.73,79.10,13.72,1,3,1,100.58,118.87,75.29,82.91,12.19,15.24,3.05,424.75,TARP,DOE-2,139.35,55.74,33.45,22.30,6,1,0,Yes
 Zone Information, FLOOR 4-6 PATIENT 1,0.0,179.83,16.76,0.00,149.35,61.72,13.72,1,3,1,118.87,179.83,57.91,65.53,12.19,15.24,3.05,1415.84,TARP,DOE-2,464.52,209.03,125.42,83.61,6,2,2,Yes
 Zone Information, FLOOR 4-6 PATIENT 2,0.0,179.83,41.76,0.00,149.35,79.10,13.72,1,3,1,118.87,179.83,75.29,82.91,12.19,15.24,3.05,1415.84,TARP,DOE-2,464.52,209.03,125.42,83.61,6,2,0,Yes
 Zone Information, FLOOR 4-6 PATIENT 3,0.0,52.43,41.76,0.00,76.50,79.10,13.72,1,3,1,52.43,100.58,75.29,82.91,12.19,15.24,3.05,1118.52,TARP,DOE-2,366.97,170.01,102.01,68.00,6,2,0,Yes
 Zone Information, FLOOR 4-6 PATIENT 4,0.0,52.43,24.38,0.00,76.50,61.72,13.72,1,3,1,52.43,100.58,57.91,65.53,12.19,15.24,3.05,1118.52,TARP,DOE-2,366.97,170.01,102.01,68.00,6,2,2,Yes
 Zone Information, FLOOR 4-6 PATIENT CORRIDOR 1,0.0,179.83,24.38,0.00,116.13,66.75,13.72,1,3,1,52.43,179.83,65.53,67.97,12.19,15.24,3.05,946.91,TARP,DOE-2,310.67,14.86,8.92,5.95,6,2,0,Yes
 Zone Information, FLOOR 4-6 PATIENT CORRIDOR 2,0.0,52.43,34.14,0.00,116.13,74.07,13.72,1,3,1,52.43,179.83,72.85,75.29,12.19,15.24,3.05,946.91,TARP,DOE-2,310.67,14.86,8.92,5.95,6,2,0,Yes
 Zone Information, FLOOR 4-6 SOIL,0.0,100.58,16.76,0.00,106.68,61.72,13.72,1,3,1,100.58,112.78,57.91,65.53,12.19,15.24,3.05,283.17,TARP,DOE-2,92.90,0.00,0.00,0.00,6,0,0,Yes
 Zone Information, FLOOR 4-6 SUPPLY,0.0,179.83,26.82,0.00,144.78,70.41,13.72,1,3,1,109.73,179.83,67.97,72.85,12.19,15.24,3.05,1042.06,TARP,DOE-2,341.88,14.86,8.92,5.95,6,1,0,Yes
 Zone Information, FLOOR 7 CLEAN,0.0,112.78,16.76,0.00,115.82,61.72,19.81,1,1,1,112.78,118.87,57.91,65.53,18.29,21.34,3.05,141.58,TARP,DOE-2,46.45,0.00,0.00,0.00,6,0,0,Yes
 Zone Information, FLOOR 7 ELEVATOR,0.0,118.87,7.62,0.00,109.73,53.34,19.81,1,1,1,100.58,118.87,48.77,57.91,18.29,21.34,3.05,509.70,TARP,DOE-2,167.23,111.48,66.89,44.59,6,3,2,Yes
 Zone Information, FLOOR 7 NURSE STATION,0.0,52.43,31.70,0.00,81.08,70.41,19.81,1,1,1,52.43,109.73,67.97,72.85,18.29,21.34,3.05,851.77,TARP,DOE-2,279.45,14.86,8.92,5.95,6,1,0,Yes
 Zone Information, FLOOR 7 OFFICE,0.0,118.87,41.76,0.00,109.73,79.10,19.81,1,1,1,100.58,118.87,75.29,82.91,18.29,21.34,3.05,424.75,TARP,DOE-2,139.35,55.74,33.45,22.30,6,1,0,Yes
 Zone Information, FLOOR 7 PATIENT 1,0.0,179.83,16.76,0.00,149.35,61.72,19.81,1,1,1,118.87,179.83,57.91,65.53,18.29,21.34,3.05,1415.84,TARP,DOE-2,464.52,209.03,125.42,83.61,6,2,2,Yes
 Zone Information, FLOOR 7 PATIENT 2,0.0,179.83,41.76,0.00,149.35,79.10,19.81,1,1,1,118.87,179.83,75.29,82.91,18.29,21.34,3.05,1415.84,TARP,DOE-2,464.52,209.03,125.42,83.61,6,2,0,Yes
 Zone Information, FLOOR 7 PATIENT 3,0.0,52.43,41.76,0.00,76.50,79.10,19.81,1,1,1,52.43,100.58,75.29,82.91,18.29,21.34,3.05,1118.52,TARP,DOE-2,366.97,170.01,102.01,68.00,6,2,0,Yes
 Zone Information, FLOOR 7 PATIENT 4,0.0,52.43,24.38,0.00,76.50,61.72,19.81,1,1,1,52.43,100.58,57.91,65.53,18.29,21.34,3.05,1118.52,TARP,DOE-2,366.97,170.01,102.01,68.00,6,2,2,Yes
 Zone Information, FLOOR 7 PATIENT CORRIDOR 1,0.0,179.83,24.38,0.00,116.13,66.75,19.81,1,1,1,52.43,179.83,65.53,67.97,18.29,21.34,3.05,946.91,TARP,DOE-2,310.67,14.86,8.92,5.95,6,2,0,Yes
 Zone Information, FLOOR 7 PATIENT CORRIDOR 2,0.0,52.43,34.14,0.00,116.13,74.07,19.81,1,1,1,52.43,179.83,72.85,75.29,18.29,21.34,3.05,946.91,TARP,DOE-2,310.67,14.86,8.92,5.95,6,2,0,Yes
 Zone Information, FLOOR 7 SOIL,0.0,100.58,16.76,0.00,106.68,61.72,19.81,1,1,1,100.58,112.78,57.91,65.53,18.29,21.34,3.05,283.17,TARP,DOE-2,92.90,0.00,0.00,0.00,6,0,0,Yes
 Zone Information, FLOOR 7 SUPPLY,0.0,179.83,26.82,0.00,144.78,70.41,19.81,1,1,1,109.73,179.83,67.97,72.85,18.29,21.34,3.05,1042.06,TARP,DOE-2,341.88,14.86,8.92,5.95,6,1,0,Yes
 Zone Information, MOB FLOOR 1 CORE,0.0,33.53,56.39,0.00,19.05,26.67,1.52,1,1,1,4.57,33.53,4.57,48.77,0.00,3.05,3.05,3900.65,TARP,DOE-2,1279.74,0.00,0.00,0.00,6,0,0,Yes
 Zone Information, MOB FLOOR 1 PERIMETER 1,0.0,0.00,0.00,0.00,2.22,25.31,1.52,1,1,1,0.00,4.57,0.00,48.77,0.00,3.05,3.05,647.75,TARP,DOE-2,212.52,148.64,89.19,59.46,6,1,0,Yes
 Zone Information, MOB FLOOR 1 PERIMETER 2,0.0,0.00,0.00,0.00,19.05,2.11,1.52,1,1,1,0.00,38.10,0.00,4.57,0.00,3.05,3.05,467.23,TARP,DOE-2,153.29,116.13,69.68,46.45,6,1,2,Yes
 Zone Information, MOB FLOOR 1 PERIMETER 3,0.0,38.10,0.00,0.00,35.88,25.31,1.52,1,1,1,33.53,38.10,0.00,48.77,0.00,3.05,3.05,647.75,TARP,DOE-2,212.52,148.64,89.19,59.46,6,1,0,Yes
 Zone Information, MOB FLOOR 2-4 CORE,0.0,33.53,56.39,0.00,19.05,24.38,7.62,1,3,1,4.57,33.53,4.57,44.20,6.10,9.14,3.05,3497.13,TARP,DOE-2,1147.35,0.00,0.00,0.00,6,0,0,Yes
 Zone Information, MOB FLOOR 2-4 PERIMETER 1,0.0,0.00,0.00,0.00,2.15,24.38,7.62,1,3,1,0.00,4.57,0.00,48.77,6.10,9.14,3.05,615.89,TARP,DOE-2,202.06,148.64,89.19,59.46,6,1,0,Yes
 Zone Information, MOB FLOOR 2-4 PERIMETER 2,0.0,0.00,0.00,0.00,19.05,2.11,7.62,1,3,1,0.00,38.10,0.00,4.57,6.10,9.14,3.05,467.23,TARP,DOE-2,153.29,116.13,69.68,46.45,6,1,2,Yes
 Zone Information, MOB FLOOR 2-4 PERIMETER 3,0.0,38.10,0.00,0.00,35.95,24.38,7.62,1,3,1,33.53,38.10,0.00,48.77,6.10,9.14,3.05,615.89,TARP,DOE-2,202.06,148.64,89.19,59.46,6,1,0,Yes
 Zone Information, MOB FLOOR 2-4 PERIMETER 4,0.0,38.10,60.96,0.00,19.05,46.66,7.62,1,3,1,0.00,38.10,44.20,48.77,6.10,9.14,3.05,467.23,TARP,DOE-2,153.29,116.13,69.68,46.45,6,1,0,Yes
 Zone Information, MOB FLOOR 5 CORE,0.0,33.53,56.39,0.00,19.05,24.38,13.72,1,1,1,4.57,33.53,4.57,44.20,12.19,15.24,3.05,3497.13,TARP,DOE-2,1147.35,0.00,0.00,0.00,6,0,0,Yes
 Zone Information, MOB FLOOR 5 PERIMETER 1,0.0,0.00,0.00,0.00,2.15,24.38,13.72,1,1,1,0.00,4.57,0.00,48.77,12.19,15.24,3.05,615.89,TARP,DOE-2,202.06,148.64,89.19,59.46,6,1,0,Yes
 Zone Information, MOB FLOOR 5 PERIMETER 2,0.0,0.00,0.00,0.00,19.05,2.11,13.72,1,1,1,0.00,38.10,0.00,4.57,12.19,15.24,3.05,467.23,TARP,DOE-2,153.29,116.13,69.68,46.45,6,1,2,Yes
 Zone Information, MOB FLOOR 5 PERIMETER 3,0.0,38.10,0.00,0.00,35.95,24.38,13.72,1,1,1,33.53,38.10,0.00,48.77,12.19,15.24,3.05,615.89,TARP,DOE-2,202.06,148.64,89.19,59.46,6,1,0,Yes
 Zone Information, MOB FLOOR 5 PERIMETER 4,0.0,38.10,60.96,0.00,19.05,46.66,13.72,1,1,1,0.00,38.10,44.20,48.77,12.19,15.24,3.05,467.23,TARP,DOE-2,153.29,116.13,69.68,46.45,6,1,0,Yes
! <Zone Internal Gains Nominal>,Zone Name, Floor Area {m2},# Occupants,Area per Occupant {m2/person},Occupant per Area {person/m2},Interior Lighting {W/m2},Electric Load {W/m2},Gas Load {W/m2},Other Load {W/m2},Hot Water Eq {W/m2},Steam Equipment {W/m2},Sum Loads per Area {W/m2},Outdoor Controlled Baseboard Heat
 Zone Internal Gains Nominal, FLOOR 1 CAFE,373.28,401.8,0.929,1.076,9.690,1.080,0.000,0.000,0.000,0.000,10.770,No
 Zone Internal Gains Nominal, FLOOR 1 CLEAN,44.59,2.4,18.588,5.380E-002,8.610,21.530,0.000,0.000,0.000,0.000,30.140,No
 Zone Internal Gains Nominal, FLOOR 1 CONFERENCE,571.35,307.5,1.858,0.538,11.840,1.080,0.000,0.000,0.000,0.000,12.920,No
 Zone Internal Gains Nominal, FLOOR 1 DINING,457.08,344.4,1.327,0.753,9.690,1.080,0.000,0.000,0.000,0.000,10.770,No
 Zone Internal Gains Nominal, FLOOR 1 ELEVATOR,167.23,54.0,3.097,0.323,9.690,1.080,0.000,0.000,0.000,0.000,10.770,No
 Zone Internal Gains Nominal, FLOOR 1 EXAM,245.26,13.2,18.587,5.380E-002,11.840,10.760,0.000,0.000,0.000,0.000,22.600,No
 Zone Internal Gains Nominal, FLOOR 1 FOOD STORAGE,186.64,10.0,18.587,5.380E-002,12.920,199.130,1869.690,0.000,0.000,0.000,2081.740,No
 Zone Internal Gains Nominal, FLOOR 1 GAS STORAGE,57.97,0.0,N/A,0.000,8.610,10.760,0.000,0.000,0.000,0.000,19.370,No
 Zone Internal Gains Nominal, FLOOR 1 IMAGING,141.21,7.6,18.587,5.380E-002,4.310,96.870,0.000,0.000,0.000,0.000,101.180,No
 Zone Internal Gains Nominal, FLOOR 1 KITCHEN,186.64,10.0,18.587,5.380E-002,12.920,199.130,1869.690,0.000,0.000,0.000,2081.740,No
 Zone Internal Gains Nominal, FLOOR 1 LAB 1,185.81,10.0,18.587,5.380E-002,9.690,43.050,0.000,0.000,0.000,0.000,52.740,No
 Zone Internal Gains Nominal, FLOOR 1 LAB 2,455.22,24.5,18.587,5.380E-002,9.690,43.050,0.000,0.000,0.000,0.000,52.740,No
 Zone Internal Gains Nominal, FLOOR 1 LAUNDRY,207.73,44.7,4.645,0.215,6.460,5.380,107.640,0.000,0.000,0.000,119.480,No
 Zone Internal Gains Nominal, FLOOR 1 LOBBY,348.39,112.5,3.097,0.323,8.610,1.080,0.000,0.000,0.000,0.000,9.690,No
 Zone Internal Gains Nominal, FLOOR 1 LOUNGE,118.92,6.4,18.587,5.380E-002,8.610,1.080,0.000,0.000,0.000,0.000,9.690,No
 Zone Internal Gains Nominal, FLOOR 1 MECH 1,752.51,0.0,N/A,0.000,8.610,1.080,0.000,0.000,0.000,0.000,9.690,No
 Zone Internal Gains Nominal, FLOOR 1 MECH 2,1003.35,0.0,N/A,0.000,8.610,1.080,0.000,0.000,0.000,0.000,9.690,No
 Zone Internal Gains Nominal, FLOOR 1 OFFICE 1,685.62,36.9,18.587,5.380E-002,8.610,5.380,0.000,0.000,0.000,0.000,13.990,No
 Zone Internal Gains Nominal, FLOOR 1 OFFICE 2,528.06,28.4,18.587,5.380E-002,8.610,5.380,0.000,0.000,0.000,0.000,13.990,No
 Zone Internal Gains Nominal, FLOOR 1 OFFICE 3,1839.02,98.9,18.587,5.380E-002,8.610,5.380,0.000,0.000,0.000,0.000,13.990,No
 Zone Internal Gains Nominal, FLOOR 1 OFFICE 3 PERIMETER 1,268.26,14.4,18.587,5.380E-002,8.610,5.380,0.000,0.000,0.000,0.000,13.990,No
 Zone Internal Gains Nominal, FLOOR 1 OFFICE 3 PERIMETER 2,170.01,9.1,18.587,5.380E-002,8.610,5.380,0.000,0.000,0.000,0.000,13.990,No
 Zone Internal Gains Nominal, FLOOR 1 OFFICE 3 PERIMETER 3,268.26,14.4,18.587,5.380E-002,8.610,5.380,0.000,0.000,0.000,0.000,13.990,No
 Zone Internal Gains Nominal, FLOOR 1 PATIENT,167.23,9.0,18.587,5.380E-002,7.530,10.760,0.000,0.000,0.000,0.000,18.290,No
 Zone Internal Gains Nominal, FLOOR 1 PHARMACY,557.42,60.0,9.294,0.108,12.920,10.760,0.000,0.000,0.000,0.000,23.680,No
 Zone Internal Gains Nominal, FLOOR 1 PHYSICAL THERAPY,457.08,49.2,9.294,0.108,9.690,10.760,0.000,0.000,0.000,0.000,20.450,No
 Zone Internal Gains Nominal, FLOOR 1 RECEIVING,207.73,0.0,N/A,0.000,7.530,10.760,0.000,0.000,0.000,0.000,18.290,No
 Zone Internal Gains Nominal, FLOOR 1 RECEPTION,52.03,16.8,3.097,0.323,9.690,1.080,0.000,0.000,0.000,0.000,10.770,No
 Zone Internal Gains Nominal, FLOOR 1 SOIL,44.59,2.4,18.588,5.380E-002,8.610,0.000,0.000,0.000,0.000,0.000,8.610,No
 Zone Internal Gains Nominal, FLOOR 1 STORAGE,501.68,0.0,N/A,0.000,7.530,10.760,0.000,0.000,0.000,0.000,18.290,No
 Zone Internal Gains Nominal, FLOOR 1 WAITING,141.21,45.6,3.097,0.323,9.690,1.080,0.000,0.000,0.000,0.000,10.770,No
 Zone Internal Gains Nominal, FLOOR 2 CHAPEL,189.52,10.2,18.587,5.380E-002,8.610,5.380,0.000,0.000,0.000,0.000,13.990,No
 Zone Internal Gains Nominal, FLOOR 2 CLEAN 1,44.87,2.4,18.588,5.380E-002,8.610,21.530,0.000,0.000,0.000,0.000,30.140,No
 Zone Internal Gains Nominal, FLOOR 2 CLEAN 2,29.73,1.6,18.588,5.380E-002,8.610,21.530,0.000,0.000,0.000,0.000,30.140,No
 Zone Internal Gains Nominal, FLOOR 2 CORRIDOR,483.10,0.0,N/A,0.000,7.530,1.080,0.000,0.000,0.000,0.000,8.610,No
 Zone Internal Gains Nominal, FLOOR 2 ELEVATOR,167.23,54.0,3.097,0.323,9.690,1.080,0.000,0.000,0.000,0.000,10.770,No
 Zone Internal Gains Nominal, FLOOR 2 EXAM 1,390.19,21.0,18.587,5.380E-002,11.840,10.760,0.000,0.000,0.000,0.000,22.600,No
 Zone Internal Gains Nominal, FLOOR 2 EXAM 2,125.42,6.7,18.587,5.380E-002,11.840,10.760,0.000,0.000,0.000,0.000,22.600,No
 Zone Internal Gains Nominal, FLOOR 2 EXAM 3,376.26,20.2,18.587,5.380E-002,11.840,10.760,0.000,0.000,0.000,0.000,22.600,No
 Zone Internal Gains Nominal, FLOOR 2 EXAM 4,371.61,20.0,18.587,5.380E-002,11.840,10.760,0.000,0.000,0.000,0.000,22.600,No
 Zone Internal Gains Nominal, FLOOR 2 GIFT SHOP,167.23,9.0,18.587,5.380E-002,8.610,5.380,0.000,0.000,0.000,0.000,13.990,No
 Zone Internal Gains Nominal, FLOOR 2 IMAGING 1,214.61,11.5,18.587,5.380E-002,4.310,96.870,0.000,0.000,0.000,0.000,101.180,No
 Zone Internal Gains Nominal, FLOOR 2 IMAGING 2,315.87,17.0,18.587,5.380E-002,4.310,96.870,0.000,0.000,0.000,0.000,101.180,No
 Zone Internal Gains Nominal, FLOOR 2 IMAGING 3,371.61,20.0,18.587,5.380E-002,4.310,96.870,0.000,0.000,0.000,0.000,101.180,No
 Zone Internal Gains Nominal, FLOOR 2 LAB 1,211.82,11.4,18.587,5.380E-002,9.690,43.050,0.000,0.000,0.000,0.000,52.740,No
 Zone Internal Gains Nominal, FLOOR 2 LAB 2,315.87,17.0,18.587,5.380E-002,9.690,43.050,0.000,0.000,0.000,0.000,52.740,No
 Zone Internal Gains Nominal, FLOOR 2 LOCKERS,69.68,3.7,18.588,5.380E-002,6.460,2.690,0.000,0.000,0.000,0.000,9.150,No
 Zone Internal Gains Nominal, FLOOR 2 LOUNGE 1,111.48,6.0,18.587,5.380E-002,8.610,1.080,0.000,0.000,0.000,0.000,9.690,No
 Zone Internal Gains Nominal, FLOOR 2 LOUNGE 2,81.29,4.4,18.587,5.380E-002,8.610,1.080,0.000,0.000,0.000,0.000,9.690,No
 Zone Internal Gains Nominal, FLOOR 2 NURSE STATION 1,119.84,6.4,18.587,5.380E-002,10.760,8.070,0.000,0.000,0.000,0.000,18.830,No
 Zone Internal Gains Nominal, FLOOR 2 NURSE STATION 2,371.61,20.0,18.587,5.380E-002,10.760,8.070,0.000,0.000,0.000,0.000,18.830,No
 Zone Internal Gains Nominal, FLOOR 2 OFFICE 1,217.39,11.7,18.587,5.380E-002,8.610,5.380,0.000,0.000,0.000,0.000,13.990,No
 Zone Internal Gains Nominal, FLOOR 2 OFFICE 2,178.37,9.6,18.587,5.380E-002,8.610,5.380,0.000,0.000,0.000,0.000,13.990,No
 Zone Internal Gains Nominal, FLOOR 2 OFFICE 3,278.71,15.0,18.587,5.380E-002,8.610,5.380,0.000,0.000,0.000,0.000,13.990,No
 Zone Internal Gains Nominal, FLOOR 2 OFFICE 4,325.16,17.5,18.587,5.380E-002,8.610,5.380,0.000,0.000,0.000,0.000,13.990,No
 Zone Internal Gains Nominal, FLOOR 2 OPERATING,1790.80,96.3,18.587,5.380E-002,21.530,43.050,0.000,0.000,0.000,0.000,64.580,No
 Zone Internal Gains Nominal, FLOOR 2 PACU,376.26,20.2,18.587,5.380E-002,8.610,21.520,0.000,0.000,0.000,0.000,30.130,No
 Zone Internal Gains Nominal, FLOOR 2 PATIENT 1,316.61,17.0,18.587,5.380E-002,7.530,10.760,0.000,0.000,0.000,0.000,18.290,No
 Zone Internal Gains Nominal, FLOOR 2 PATIENT 2,260.69,14.0,18.587,5.380E-002,7.530,10.760,0.000,0.000,0.000,0.000,18.290,No
 Zone Internal Gains Nominal, FLOOR 2 PROCEDURE 1,234.12,12.6,18.587,5.380E-002,21.530,43.050,0.000,0.000,0.000,0.000,64.580,No
 Zone Internal Gains Nominal, FLOOR 2 PROCEDURE 2,126.35,6.8,18.587,5.380E-002,21.530,43.050,0.000,0.000,0.000,0.000,64.580,No
 Zone Internal Gains Nominal, FLOOR 2 RECEPTION,162.58,52.5,3.097,0.323,9.690,1.080,0.000,0.000,0.000,0.000,10.770,No
 Zone Internal Gains Nominal, FLOOR 2 RESTROOM 1,59.46,3.2,18.588,5.380E-002,8.610,1.080,0.000,0.000,0.000,0.000,9.690,No
 Zone Internal Gains Nominal, FLOOR 2 RESTROOM 2,83.61,4.5,18.587,5.380E-002,8.610,1.080,0.000,0.000,0.000,0.000,9.690,No
 Zone Internal Gains Nominal, FLOOR 2 SOIL 1,44.87,2.4,18.588,5.380E-002,8.610,0.000,0.000,0.000,0.000,0.000,8.610,No
 Zone Internal Gains Nominal, FLOOR 2 SOIL 2,29.73,1.6,18.588,5.380E-002,8.610,0.000,0.000,0.000,0.000,0.000,8.610,No
 Zone Internal Gains Nominal, FLOOR 2 STERILIZING,126.35,0.0,N/A,0.000,9.690,64.580,75.350,0.000,0.000,0.000,149.620,No
 Zone Internal Gains Nominal, FLOOR 2 STORAGE 1,139.35,0.0,N/A,0.000,7.530,10.760,0.000,0.000,0.000,0.000,18.290,No
 Zone Internal Gains Nominal, FLOOR 2 STORAGE 2,59.46,0.0,N/A,0.000,7.530,10.760,0.000,0.000,0.000,0.000,18.290,No
 Zone Internal Gains Nominal, FLOOR 2 TRAUMA,416.21,22.4,18.587,5.380E-002,12.920,43.050,0.000,0.000,0.000,0.000,55.970,No
 Zone Internal Gains Nominal, FLOOR 2 TRIAGE,81.29,4.4,18.587,5.380E-002,21.530,10.760,0.000,0.000,0.000,0.000,32.290,No
 Zone Internal Gains Nominal, FLOOR 2 WAITING,362.32,117.0,3.097,0.323,9.690,1.080,0.000,0.000,0.000,0.000,10.770,No
 Zone Internal Gains Nominal, FLOOR 3 CLEAN,46.45,2.5,18.587,5.380E-002,8.610,21.530,0.000,0.000,0.000,0.000,30.140,No
 Zone Internal Gains Nominal, FLOOR 3 ELEVATOR,167.23,54.0,3.097,0.323,9.690,1.080,0.000,0.000,0.000,0.000,10.770,No
 Zone Internal Gains Nominal, FLOOR 3 EXAM,250.84,13.5,18.587,5.380E-002,11.840,10.760,0.000,0.000,0.000,0.000,22.600,No
 Zone Internal Gains Nominal, FLOOR 3 ICU,195.10,10.5,18.587,5.380E-002,8.610,21.520,0.000,0.000,0.000,0.000,30.130,No
 Zone Internal Gains Nominal, FLOOR 3 NURSE STATION 1,279.45,15.0,18.587,5.380E-002,10.760,8.070,0.000,0.000,0.000,0.000,18.830,No
 Zone Internal Gains Nominal, FLOOR 3 NURSE STATION 2,222.97,12.0,18.587,5.380E-002,10.760,8.070,0.000,0.000,0.000,0.000,18.830,No
 Zone Internal Gains Nominal, FLOOR 3 NURSERY,91.97,4.9,18.587,5.380E-002,6.460,10.760,0.000,0.000,0.000,0.000,17.220,No
 Zone Internal Gains Nominal, FLOOR 3 OFFICE,250.84,13.5,18.587,5.380E-002,8.610,5.380,0.000,0.000,0.000,0.000,13.990,No
 Zone Internal Gains Nominal, FLOOR 3 OPERATING,167.23,9.0,18.587,5.380E-002,21.530,43.050,0.000,0.000,0.000,0.000,64.580,No
 Zone Internal Gains Nominal, FLOOR 3 PATIENT 1,464.52,25.0,18.587,5.380E-002,7.530,10.760,0.000,0.000,0.000,0.000,18.290,No
 Zone Internal Gains Nominal, FLOOR 3 PATIENT 2,464.52,25.0,18.587,5.380E-002,7.530,10.760,0.000,0.000,0.000,0.000,18.290,No
 Zone Internal Gains Nominal, FLOOR 3 PATIENT 3,366.97,19.7,18.587,5.380E-002,7.530,10.760,0.000,0.000,0.000,0.000,18.290,No
 Zone Internal Gains Nominal, FLOOR 3 PATIENT 4,366.97,19.7,18.587,5.380E-002,7.530,10.760,0.000,0.000,0.000,0.000,18.290,No
 Zone Internal Gains Nominal, FLOOR 3 PATIENT CORRIDOR 1,310.67,0.0,N/A,0.000,7.530,1.080,0.000,0.000,0.000,0.000,8.610,No
 Zone Internal Gains Nominal, FLOOR 3 PATIENT CORRIDOR 2,310.67,0.0,N/A,0.000,7.530,1.080,0.000,0.000,0.000,0.000,8.610,No
 Zone Internal Gains Nominal, FLOOR 3 PROCEDURE,66.89,3.6,18.587,5.380E-002,21.530,43.050,0.000,0.000,0.000,0.000,64.580,No
 Zone Internal Gains Nominal, FLOOR 3 SOIL,92.90,5.0,18.587,5.380E-002,8.610,0.000,0.000,0.000,0.000,0.000,8.610,No
 Zone Internal Gains Nominal, FLOOR 3 SUPPLY,341.88,0.0,N/A,0.000,11.840,10.760,0.000,0.000,0.000,0.000,22.600,No
 Zone Internal Gains Nominal, FLOOR 3 TRIAGE,139.35,7.5,18.587,5.380E-002,21.530,10.760,0.000,0.000,0.000,0.000,32.290,No
 Zone Internal Gains Nominal, FLOOR 3 WAITING,91.97,29.7,3.097,0.323,9.690,1.080,0.000,0.000,0.000,0.000,10.770,No
 Zone Internal Gains Nominal, FLOOR 4-6 CLEAN,46.45,2.5,18.587,5.380E-002,8.610,21.530,0.000,0.000,0.000,0.000,30.140,No
 Zone Internal Gains Nominal, FLOOR 4-6 ELEVATOR,167.23,54.0,3.097,0.323,9.690,1.080,0.000,0.000,0.000,0.000,10.770,No
 Zone Internal Gains Nominal, FLOOR 4-6 NURSE STATION,279.45,15.0,18.587,5.380E-002,10.760,8.070,0.000,0.000,0.000,0.000,18.830,No
 Zone Internal Gains Nominal, FLOOR 4-6 OFFICE,139.35,7.5,18.587,5.380E-002,8.610,5.380,0.000,0.000,0.000,0.000,13.990,No
 Zone Internal Gains Nominal, FLOOR 4-6 PATIENT 1,464.52,25.0,18.587,5.380E-002,7.530,10.760,0.000,0.000,0.000,0.000,18.290,No
 Zone Internal Gains Nominal, FLOOR 4-6 PATIENT 2,464.52,25.0,18.587,5.380E-002,7.530,10.760,0.000,0.000,0.000,0.000,18.290,No
 Zone Internal Gains Nominal, FLOOR 4-6 PATIENT 3,366.97,19.7,18.587,5.380E-002,7.530,10.760,0.000,0.000,0.000,0.000,18.290,No
 Zone Internal Gains Nominal, FLOOR 4-6 PATIENT 4,366.97,19.7,18.587,5.380E-002,7.530,10.760,0.000,0.000,0.000,0.000,18.290,No
 Zone Internal Gains Nominal, FLOOR 4-6 PATIENT CORRIDOR 1,310.67,0.0,N/A,0.000,7.530,1.080,0.000,0.000,0.000,0.000,8.610,No
 Zone Internal Gains Nominal, FLOOR 4-6 PATIENT CORRIDOR 2,310.67,0.0,N/A,0.000,7.530,1.080,0.000,0.000,0.000,0.000,8.610,No
 Zone Internal Gains Nominal, FLOOR 4-6 SOIL,92.90,5.0,18.587,5.380E-002,8.610,0.000,0.000,0.000,0.000,0.000,8.610,No
 Zone Internal Gains Nominal, FLOOR 4-6 SUPPLY,341.88,0.0,N/A,0.000,11.840,10.760,0.000,0.000,0.000,0.000,22.600,No
 Zone Internal Gains Nominal, FLOOR 7 CLEAN,46.45,2.5,18.587,5.380E-002,8.610,21.530,0.000,0.000,0.000,0.000,30.140,No
 Zone Internal Gains Nominal, FLOOR 7 ELEVATOR,167.23,54.0,3.097,0.323,9.690,1.080,0.000,0.000,0.000,0.000,10.770,No
 Zone Internal Gains Nominal, FLOOR 7 NURSE STATION,279.45,15.0,18.587,5.380E-002,10.760,8.070,0.000,0.000,0.000,0.000,18.830,No
 Zone Internal Gains Nominal, FLOOR 7 OFFICE,139.35,7.5,18.587,5.380E-002,8.610,5.380,0.000,0.000,0.000,0.000,13.990,No
 Zone Internal Gains Nominal, FLOOR 7 PATIENT 1,464.52,25.0,18.587,5.380E-002,7.530,10.760,0.000,0.000,0.000,0.000,18.290,No
 Zone Internal Gains Nominal, FLOOR 7 PATIENT 2,464.52,25.0,18.587,5.380E-002,7.530,10.760,0.000,0.000,0.000,0.000,18.290,No
 Zone Internal Gains Nominal, FLOOR 7 PATIENT 3,366.97,19.7,18.587,5.380E-002,7.530,10.760,0.000,0.000,0.000,0.000,18.290,No
 Zone Internal Gains Nominal, FLOOR 7 PATIENT 4,366.97,19.7,18.587,5.380E-002,7.530,10.760,0.000,0.000,0.000,0.000,18.290,No
 Zone Internal Gains Nominal, FLOOR 7 PATIENT CORRIDOR 1,310.67,0.0,N/A,0.000,7.530,1.080,0.000,0.000,0.000,0.000,8.610,No
 Zone Internal Gains Nominal, FLOOR 7 PATIENT CORRIDOR 2,310.67,0.0,N/A,0.000,7.530,1.080,0.000,0.000,0.000,0.000,8.610,No
 Zone Internal Gains Nominal, FLOOR 7 SOIL,92.90,5.0,18.587,5.380E-002,8.610,0.000,0.000,0.000,0.000,0.000,8.610,No
 Zone Internal Gains Nominal, FLOOR 7 SUPPLY,341.88,0.0,N/A,0.000,11.840,10.760,0.000,0.000,0.000,0.000,22.600,No
 Zone Internal Gains Nominal, MOB FLOOR 1 CORE,1279.74,68.9,18.587,5.380E-002,8.610,5.380,0.000,0.000,0.000,0.000,13.990,No
 Zone Internal Gains Nominal, MOB FLOOR 1 PERIMETER 1,212.52,11.4,18.587,5.380E-002,8.610,5.380,0.000,0.000,0.000,0.000,13.990,No
 Zone Internal Gains Nominal, MOB FLOOR 1 PERIMETER 2,153.29,8.2,18.587,5.380E-002,8.610,5.380,0.000,0.000,0.000,0.000,13.990,No
 Zone Internal Gains Nominal, MOB FLOOR 1 PERIMETER 3,212.52,11.4,18.587,5.380E-002,8.610,5.380,0.000,0.000,0.000,0.000,13.990,No
 Zone Internal Gains Nominal, MOB FLOOR 2-4 CORE,1147.35,61.7,18.587,5.380E-002,8.610,5.380,0.000,0.000,0.000,0.000,13.990,No
 Zone Internal Gains Nominal, MOB FLOOR 2-4 PERIMETER 1,202.06,10.9,18.587,5.380E-002,8.610,5.380,0.000,0.000,0.000,0.000,13.990,No
 Zone Internal Gains Nominal, MOB FLOOR 2-4 PERIMETER 2,153.29,8.2,18.587,5.380E-002,8.610,5.380,0.000,0.000,0.000,0.000,13.990,No
 Zone Internal Gains Nominal, MOB FLOOR 2-4 PERIMETER 3,202.06,10.9,18.587,5.380E-002,8.610,5.380,0.000,0.000,0.000,0.000,13.990,No
 Zone Internal Gains Nominal, MOB FLOOR 2-4 PERIMETER 4,153.29,8.2,18.587,5.380E-002,8.610,5.380,0.000,0.000,0.000,0.000,13.990,No
 Zone Internal Gains Nominal, MOB FLOOR 5 CORE,1147.35,61.7,18.587,5.380E-002,8.610,5.380,0.000,0.000,0.000,0.000,13.990,No
 Zone Internal Gains Nominal, MOB FLOOR 5 PERIMETER 1,202.06,10.9,18.587,5.380E-002,8.610,5.380,0.000,0.000,0.000,0.000,13.990,No
 Zone Internal Gains Nominal, MOB FLOOR 5 PERIMETER 2,153.29,8.2,18.587,5.380E-002,8.610,5.380,0.000,0.000,0.000,0.000,13.990,No
 Zone Internal Gains Nominal, MOB FLOOR 5 PERIMETER 3,202.06,10.9,18.587,5.380E-002,8.610,5.380,0.000,0.000,0.000,0.000,13.990,No
 Zone Internal Gains Nominal, MOB FLOOR 5 PERIMETER 4,153.29,8.2,18.587,5.380E-002,8.610,5.380,0.000,0.000,0.000,0.000,13.990,No
! <People Internal Gains Nominal>,Name,Schedule Name,Zone Name,Zone Floor Area {m2},# Zone Occupants,Number of People {},People/Floor Area {person/m2},Floor Area per person {m2/person},Fraction Radiant,Fraction Convected,Sensible Fraction Calculation,Activity level,ASHRAE 55 Warnings,Carbon Dioxide Generation Rate,Nominal Minimum Number of People,Nominal Maximum Number of People,MRT Calculation Type,Work Efficiency, Clothing Insulation Calculation Method,Clothing Insulation Calculation Method Schedule,Clothing,Air Velocity,Fanger Calculation,Pierce Calculation,KSU Calculation
 People Internal Gains Nominal, FLOOR 1 CAFE PEOPLE,BLDG_OCC_SCH_DINING,FLOOR 1 CAFE,373.28,401.8,401.8,1.076,0.929,0.300,0.700,AutoCalculate,ACTIVITY_SCH,No,3.8200E-008,0,402,Zone Averaged,WORK_EFF_SCH,Clothing Insulation Schedule,N/A,CLOTHING_SCH,AIR_VELO_SCH,Yes,No,No
 People Internal Gains Nominal, FLOOR 1 CLEAN PEOPLE,BLDG_OCC_SCH_24_7,FLOOR 1 CLEAN,44.59,2.4,2.4,5.380E-002,18.588,0.300,0.700,AutoCalculate,ACTIVITY_SCH,No,3.8200E-008,0,2,Zone Averaged,WORK_EFF_SCH,Clothing Insulation Schedule,N/A,CLOTHING_SCH,AIR_VELO_SCH,Yes,No,No
 People Internal Gains Nominal, FLOOR 1 CONFERENCE PEOPLE,BLDG_OCC_SCH_OFFICE,FLOOR 1 CONFERENCE,571.35,307.5,307.5,0.538,1.858,0.300,0.700,AutoCalculate,ACTIVITY_SCH,No,3.8200E-008,0,308,Zone Averaged,WORK_EFF_SCH,Clothing Insulation Schedule,N/A,CLOTHING_SCH,AIR_VELO_SCH,Yes,No,No
 People Internal Gains Nominal, FLOOR 1 DINING PEOPLE,BLDG_OCC_SCH_DINING,FLOOR 1 DINING,457.08,344.4,344.4,0.753,1.327,0.300,0.700,AutoCalculate,ACTIVITY_SCH,No,3.8200E-008,0,344,Zone Averaged,WORK_EFF_SCH,Clothing Insulation Schedule,N/A,CLOTHING_SCH,AIR_VELO_SCH,Yes,No,No
 People Internal Gains Nominal, FLOOR 1 ELEVATOR PEOPLE,BLDG_OCC_SCH_24_7,FLOOR 1 ELEVATOR,167.23,54.0,54.0,0.323,3.097,0.300,0.700,AutoCalculate,ACTIVITY_SCH,No,3.8200E-008,0,49,Zone Averaged,WORK_EFF_SCH,Clothing Insulation Schedule,N/A,CLOTHING_SCH,AIR_VELO_SCH,Yes,No,No
 People Internal Gains Nominal, FLOOR 1 EXAM PEOPLE,BLDG_OCC_SCH_OFFICE,FLOOR 1 EXAM,245.26,13.2,13.2,5.380E-002,18.587,0.300,0.700,AutoCalculate,ACTIVITY_SCH,No,3.8200E-008,0,13,Zone Averaged,WORK_EFF_SCH,Clothing Insulation Schedule,N/A,CLOTHING_SCH,AIR_VELO_SCH,Yes,No,No
 People Internal Gains Nominal, FLOOR 1 FOOD STORAGE PEOPLE,BLDG_OCC_SCH_KITCHEN,FLOOR 1 FOOD STORAGE,186.64,10.0,10.0,5.380E-002,18.587,0.300,0.700,AutoCalculate,ACTIVITY_SCH,No,3.8200E-008,0,10,Zone Averaged,WORK_EFF_SCH,Clothing Insulation Schedule,N/A,CLOTHING_SCH,AIR_VELO_SCH,Yes,No,No
 People Internal Gains Nominal, FLOOR 1 IMAGING PEOPLE,BLDG_OCC_SCH_24_7,FLOOR 1 IMAGING,141.21,7.6,7.6,5.380E-002,18.587,0.300,0.700,AutoCalculate,ACTIVITY_SCH,No,3.8200E-008,0,7,Zone Averaged,WORK_EFF_SCH,Clothing Insulation Schedule,N/A,CLOTHING_SCH,AIR_VELO_SCH,Yes,No,No
 People Internal Gains Nominal, FLOOR 1 KITCHEN PEOPLE,BLDG_OCC_SCH_KITCHEN,FLOOR 1 KITCHEN,186.64,10.0,10.0,5.380E-002,18.587,0.300,0.700,AutoCalculate,ACTIVITY_SCH,No,3.8200E-008,0,10,Zone Averaged,WORK_EFF_SCH,Clothing Insulation Schedule,N/A,CLOTHING_SCH,AIR_VELO_SCH,Yes,No,No
 People Internal Gains Nominal, FLOOR 1 LAB 1 PEOPLE,BLDG_OCC_SCH_24_7,FLOOR 1 LAB 1,185.81,10.0,10.0,5.380E-002,18.587,0.300,0.700,AutoCalculate,ACTIVITY_SCH,No,3.8200E-008,0,9,Zone Averaged,WORK_EFF_SCH,Clothing Insulation Schedule,N/A,CLOTHING_SCH,AIR_VELO_SCH,Yes,No,No
 People Internal Gains Nominal, FLOOR 1 LAB 2 PEOPLE,BLDG_OCC_SCH_24_7,FLOOR 1 LAB 2,455.22,24.5,24.5,5.380E-002,18.587,0.300,0.700,AutoCalculate,ACTIVITY_SCH,No,3.8200E-008,0,22,Zone Averaged,WORK_EFF_SCH,Clothing Insulation Schedule,N/A,CLOTHING_SCH,AIR_VELO_SCH,Yes,No,No
 People Internal Gains Nominal, FLOOR 1 LAUNDRY PEOPLE,LAUNDRY_OCC_SCH,FLOOR 1 LAUNDRY,207.73,44.7,44.7,0.215,4.645,0.300,0.700,AutoCalculate,ACTIVITY_SCH,No,3.8200E-008,0,42,Zone Averaged,WORK_EFF_SCH,Clothing Insulation Schedule,N/A,CLOTHING_SCH,AIR_VELO_SCH,Yes,No,No
 People Internal Gains Nominal, FLOOR 1 LOBBY PEOPLE,BLDG_OCC_SCH_24_7,FLOOR 1 LOBBY,348.39,112.5,112.5,0.323,3.097,0.300,0.700,AutoCalculate,ACTIVITY_SCH,No,3.8200E-008,0,101,Zone Averaged,WORK_EFF_SCH,Clothing Insulation Schedule,N/A,CLOTHING_SCH,AIR_VELO_SCH,Yes,No,No
 People Internal Gains Nominal, FLOOR 1 LOUNGE PEOPLE,BLDG_OCC_SCH_24_7,FLOOR 1 LOUNGE,118.92,6.4,6.4,5.380E-002,18.587,0.300,0.700,AutoCalculate,ACTIVITY_SCH,No,3.8200E-008,0,6,Zone Averaged,WORK_EFF_SCH,Clothing Insulation Schedule,N/A,CLOTHING_SCH,AIR_VELO_SCH,Yes,No,No
 People Internal Gains Nominal, FLOOR 1 OFFICE 1 PEOPLE,BLDG_OCC_SCH_OFFICE,FLOOR 1 OFFICE 1,685.62,36.9,36.9,5.380E-002,18.587,0.300,0.700,AutoCalculate,ACTIVITY_SCH,No,3.8200E-008,0,37,Zone Averaged,WORK_EFF_SCH,Clothing Insulation Schedule,N/A,CLOTHING_SCH,AIR_VELO_SCH,Yes,No,No
 People Internal Gains Nominal, FLOOR 1 OFFICE 2 PEOPLE,BLDG_OCC_SCH_OFFICE,FLOOR 1 OFFICE 2,528.06,28.4,28.4,5.380E-002,18.587,0.300,0.700,AutoCalculate,ACTIVITY_SCH,No,3.8200E-008,0,28,Zone Averaged,WORK_EFF_SCH,Clothing Insulation Schedule,N/A,CLOTHING_SCH,AIR_VELO_SCH,Yes,No,No
 People Internal Gains Nominal, FLOOR 1 OFFICE 3 PEOPLE,BLDG_OCC_SCH_OFFICE,FLOOR 1 OFFICE 3,1839.02,98.9,98.9,5.380E-002,18.587,0.300,0.700,AutoCalculate,ACTIVITY_SCH,No,3.8200E-008,0,99,Zone Averaged,WORK_EFF_SCH,Clothing Insulation Schedule,N/A,CLOTHING_SCH,AIR_VELO_SCH,Yes,No,No
 People Internal Gains Nominal, FLOOR 1 OFFICE 3 PERIMETER 1 PEOPLE,BLDG_OCC_SCH_OFFICE,FLOOR 1 OFFICE 3 PERIMETER 1,268.26,14.4,14.4,5.380E-002,18.587,0.300,0.700,AutoCalculate,ACTIVITY_SCH,No,3.8200E-008,0,14,Zone Averaged,WORK_EFF_SCH,Clothing Insulation Schedule,N/A,CLOTHING_SCH,AIR_VELO_SCH,Yes,No,No
 People Internal Gains Nominal, FLOOR 1 OFFICE 3 PERIMETER 2 PEOPLE,BLDG_OCC_SCH_OFFICE,FLOOR 1 OFFICE 3 PERIMETER 2,170.01,9.1,9.1,5.380E-002,18.587,0.300,0.700,AutoCalculate,ACTIVITY_SCH,No,3.8200E-008,0,9,Zone Averaged,WORK_EFF_SCH,Clothing Insulation Schedule,N/A,CLOTHING_SCH,AIR_VELO_SCH,Yes,No,No
 People Internal Gains Nominal, FLOOR 1 OFFICE 3 PERIMETER 3 PEOPLE,BLDG_OCC_SCH_OFFICE,FLOOR 1 OFFICE 3 PERIMETER 3,268.26,14.4,14.4,5.380E-002,18.587,0.300,0.700,AutoCalculate,ACTIVITY_SCH,No,3.8200E-008,0,14,Zone Averaged,WORK_EFF_SCH,Clothing Insulation Schedule,N/A,CLOTHING_SCH,AIR_VELO_SCH,Yes,No,No
 People Internal Gains Nominal, FLOOR 1 PATIENT PEOPLE,BLDG_OCC_SCH_PATIENT,FLOOR 1 PATIENT,167.23,9.0,9.0,5.380E-002,18.587,0.300,0.700,AutoCalculate,ACTIVITY_SCH,No,3.8200E-008,0,9,Zone Averaged,WORK_EFF_SCH,Clothing Insulation Schedule,N/A,CLOTHING_SCH,AIR_VELO_SCH,Yes,No,No
 People Internal Gains Nominal, FLOOR 1 PHARMACY PEOPLE,BLDG_OCC_SCH_24_7,FLOOR 1 PHARMACY,557.42,60.0,60.0,0.108,9.294,0.300,0.700,AutoCalculate,ACTIVITY_SCH,No,3.8200E-008,0,54,Zone Averaged,WORK_EFF_SCH,Clothing Insulation Schedule,N/A,CLOTHING_SCH,AIR_VELO_SCH,Yes,No,No
 People Internal Gains Nominal, FLOOR 1 PHYSICAL THERAPY PEOPLE,BLDG_OCC_SCH_OFFICE,FLOOR 1 PHYSICAL THERAPY,457.08,49.2,49.2,0.108,9.294,0.300,0.700,AutoCalculate,ACTIVITY_SCH,No,3.8200E-008,0,49,Zone Averaged,WORK_EFF_SCH,Clothing Insulation Schedule,N/A,CLOTHING_SCH,AIR_VELO_SCH,Yes,No,No
 People Internal Gains Nominal, FLOOR 1 RECEPTION PEOPLE,BLDG_OCC_SCH_24_7,FLOOR 1 RECEPTION,52.03,16.8,16.8,0.323,3.097,0.300,0.700,AutoCalculate,ACTIVITY_SCH,No,3.8200E-008,0,15,Zone Averaged,WORK_EFF_SCH,Clothing Insulation Schedule,N/A,CLOTHING_SCH,AIR_VELO_SCH,Yes,No,No
 People Internal Gains Nominal, FLOOR 1 SOIL PEOPLE,BLDG_OCC_SCH_24_7,FLOOR 1 SOIL,44.59,2.4,2.4,5.380E-002,18.588,0.300,0.700,AutoCalculate,ACTIVITY_SCH,No,3.8200E-008,0,2,Zone Averaged,WORK_EFF_SCH,Clothing Insulation Schedule,N/A,CLOTHING_SCH,AIR_VELO_SCH,Yes,No,No
 People Internal Gains Nominal, FLOOR 1 WAITING PEOPLE,BLDG_OCC_SCH_24_7,FLOOR 1 WAITING,141.21,45.6,45.6,0.323,3.097,0.300,0.700,AutoCalculate,ACTIVITY_SCH,No,3.8200E-008,0,41,Zone Averaged,WORK_EFF_SCH,Clothing Insulation Schedule,N/A,CLOTHING_SCH,AIR_VELO_SCH,Yes,No,No
 People Internal Gains Nominal, FLOOR 2 CHAPEL PEOPLE,BLDG_OCC_SCH_OFFICE,FLOOR 2 CHAPEL,189.52,10.2,10.2,5.380E-002,18.587,0.300,0.700,AutoCalculate,ACTIVITY_SCH,No,3.8200E-008,0,10,Zone Averaged,WORK_EFF_SCH,Clothing Insulation Schedule,N/A,CLOTHING_SCH,AIR_VELO_SCH,Yes,No,No
 People Internal Gains Nominal, FLOOR 2 CLEAN 1 PEOPLE,BLDG_OCC_SCH_24_7,FLOOR 2 CLEAN 1,44.87,2.4,2.4,5.380E-002,18.588,0.300,0.700,AutoCalculate,ACTIVITY_SCH,No,3.8200E-008,0,2,Zone Averaged,WORK_EFF_SCH,Clothing Insulation Schedule,N/A,CLOTHING_SCH,AIR_VELO_SCH,Yes,No,No
 People Internal Gains Nominal, FLOOR 2 CLEAN 2 PEOPLE,BLDG_OCC_SCH_24_7,FLOOR 2 CLEAN 2,29.73,1.6,1.6,5.380E-002,18.588,0.300,0.700,AutoCalculate,ACTIVITY_SCH,No,3.8200E-008,0,1,Zone Averaged,WORK_EFF_SCH,Clothing Insulation Schedule,N/A,CLOTHING_SCH,AIR_VELO_SCH,Yes,No,No
 People Internal Gains Nominal, FLOOR 2 ELEVATOR PEOPLE,BLDG_OCC_SCH_24_7,FLOOR 2 ELEVATOR,167.23,54.0,54.0,0.323,3.097,0.300,0.700,AutoCalculate,ACTIVITY_SCH,No,3.8200E-008,0,49,Zone Averaged,WORK_EFF_SCH,Clothing Insulation Schedule,N/A,CLOTHING_SCH,AIR_VELO_SCH,Yes,No,No
 People Internal Gains Nominal, FLOOR 2 EXAM 1 PEOPLE,BLDG_OCC_SCH_OFFICE,FLOOR 2 EXAM 1,390.19,21.0,21.0,5.380E-002,18.587,0.300,0.700,AutoCalculate,ACTIVITY_SCH,No,3.8200E-008,0,21,Zone Averaged,WORK_EFF_SCH,Clothing Insulation Schedule,N/A,CLOTHING_SCH,AIR_VELO_SCH,Yes,No,No
 People Internal Gains Nominal, FLOOR 2 EXAM 2 PEOPLE,BLDG_OCC_SCH_OFFICE,FLOOR 2 EXAM 2,125.42,6.7,6.7,5.380E-002,18.587,0.300,0.700,AutoCalculate,ACTIVITY_SCH,No,3.8200E-008,0,7,Zone Averaged,WORK_EFF_SCH,Clothing Insulation Schedule,N/A,CLOTHING_SCH,AIR_VELO_SCH,Yes,No,No
 People Internal Gains Nominal, FLOOR 2 EXAM 3 PEOPLE,BLDG_OCC_SCH_OFFICE,FLOOR 2 EXAM 3,376.26,20.2,20.2,5.380E-002,18.587,0.300,0.700,AutoCalculate,ACTIVITY_SCH,No,3.8200E-008,0,20,Zone Averaged,WORK_EFF_SCH,Clothing Insulation Schedule,N/A,CLOTHING_SCH,AIR_VELO_SCH,Yes,No,No
 People Internal Gains Nominal, FLOOR 2 EXAM 4 PEOPLE,BLDG_OCC_SCH_OFFICE,FLOOR 2 EXAM 4,371.61,20.0,20.0,5.380E-002,18.587,0.300,0.700,AutoCalculate,ACTIVITY_SCH,No,3.8200E-008,0,20,Zone Averaged,WORK_EFF_SCH,Clothing Insulation Schedule,N/A,CLOTHING_SCH,AIR_VELO_SCH,Yes,No,No
 People Internal Gains Nominal, FLOOR 2 GIFT SHOP PEOPLE,BLDG_OCC_SCH_OFFICE,FLOOR 2 GIFT SHOP,167.23,9.0,9.0,5.380E-002,18.587,0.300,0.700,AutoCalculate,ACTIVITY_SCH,No,3.8200E-008,0,9,Zone Averaged,WORK_EFF_SCH,Clothing Insulation Schedule,N/A,CLOTHING_SCH,AIR_VELO_SCH,Yes,No,No
 People Internal Gains Nominal, FLOOR 2 IMAGING 1 PEOPLE,BLDG_OCC_SCH_24_7,FLOOR 2 IMAGING 1,214.61,11.5,11.5,5.380E-002,18.587,0.300,0.700,AutoCalculate,ACTIVITY_SCH,No,3.8200E-008,0,10,Zone Averaged,WORK_EFF_SCH,Clothing Insulation Schedule,N/A,CLOTHING_SCH,AIR_VELO_SCH,Yes,No,No
 People Internal Gains Nominal, FLOOR 2 IMAGING 2 PEOPLE,BLDG_OCC_SCH_24_7,FLOOR 2 IMAGING 2,315.87,17.0,17.0,5.380E-002,18.587,0.300,0.700,AutoCalculate,ACTIVITY_SCH,No,3.8200E-008,0,15,Zone Averaged,WORK_EFF_SCH,Clothing Insulation Schedule,N/A,CLOTHING_SCH,AIR_VELO_SCH,Yes,No,No
 People Internal Gains Nominal, FLOOR 2 IMAGING 3 PEOPLE,BLDG_OCC_SCH_24_7,FLOOR 2 IMAGING 3,371.61,20.0,20.0,5.380E-002,18.587,0.300,0.700,AutoCalculate,ACTIVITY_SCH,No,3.8200E-008,0,18,Zone Averaged,WORK_EFF_SCH,Clothing Insulation Schedule,N/A,CLOTHING_SCH,AIR_VELO_SCH,Yes,No,No
 People Internal Gains Nominal, FLOOR 2 LAB 1 PEOPLE,BLDG_OCC_SCH_24_7,FLOOR 2 LAB 1,211.82,11.4,11.4,5.380E-002,18.587,0.300,0.700,AutoCalculate,ACTIVITY_SCH,No,3.8200E-008,0,10,Zone Averaged,WORK_EFF_SCH,Clothing Insulation Schedule,N/A,CLOTHING_SCH,AIR_VELO_SCH,Yes,No,No
 People Internal Gains Nominal, FLOOR 2 LAB 2 PEOPLE,BLDG_OCC_SCH_24_7,FLOOR 2 LAB 2,315.87,17.0,17.0,5.380E-002,18.587,0.300,0.700,AutoCalculate,ACTIVITY_SCH,No,3.8200E-008,0,15,Zone Averaged,WORK_EFF_SCH,Clothing Insulation Schedule,N/A,CLOTHING_SCH,AIR_VELO_SCH,Yes,No,No
 People Internal Gains Nominal, FLOOR 2 LOCKERS PEOPLE,BLDG_OCC_SCH_24_7,FLOOR 2 LOCKERS,69.68,3.7,3.7,5.380E-002,18.588,0.300,0.700,AutoCalculate,ACTIVITY_SCH,No,3.8200E-008,0,3,Zone Averaged,WORK_EFF_SCH,Clothing Insulation Schedule,N/A,CLOTHING_SCH,AIR_VELO_SCH,Yes,No,No
 People Internal Gains Nominal, FLOOR 2 LOUNGE 1 PEOPLE,BLDG_OCC_SCH_24_7,FLOOR 2 LOUNGE 1,111.48,6.0,6.0,5.380E-002,18.587,0.300,0.700,AutoCalculate,ACTIVITY_SCH,No,3.8200E-008,0,5,Zone Averaged,WORK_EFF_SCH,Clothing Insulation Schedule,N/A,CLOTHING_SCH,AIR_VELO_SCH,Yes,No,No
 People Internal Gains Nominal, FLOOR 2 LOUNGE 2 PEOPLE,BLDG_OCC_SCH_24_7,FLOOR 2 LOUNGE 2,81.29,4.4,4.4,5.380E-002,18.587,0.300,0.700,AutoCalculate,ACTIVITY_SCH,No,3.8200E-008,0,4,Zone Averaged,WORK_EFF_SCH,Clothing Insulation Schedule,N/A,CLOTHING_SCH,AIR_VELO_SCH,Yes,No,No
 People Internal Gains Nominal, FLOOR 2 NURSE STATION 1 PEOPLE,BLDG_OCC_SCH_24_7,FLOOR 2 NURSE STATION 1,119.84,6.4,6.4,5.380E-002,18.587,0.300,0.700,AutoCalculate,ACTIVITY_SCH,No,3.8200E-008,0,6,Zone Averaged,WORK_EFF_SCH,Clothing Insulation Schedule,N/A,CLOTHING_SCH,AIR_VELO_SCH,Yes,No,No
 People Internal Gains Nominal, FLOOR 2 NURSE STATION 2 PEOPLE,BLDG_OCC_SCH_24_7,FLOOR 2 NURSE STATION 2,371.61,20.0,20.0,5.380E-002,18.587,0.300,0.700,AutoCalculate,ACTIVITY_SCH,No,3.8200E-008,0,18,Zone Averaged,WORK_EFF_SCH,Clothing Insulation Schedule,N/A,CLOTHING_SCH,AIR_VELO_SCH,Yes,No,No
 People Internal Gains Nominal, FLOOR 2 OFFICE 1 PEOPLE,BLDG_OCC_SCH_OFFICE,FLOOR 2 OFFICE 1,217.39,11.7,11.7,5.380E-002,18.587,0.300,0.700,AutoCalculate,ACTIVITY_SCH,No,3.8200E-008,0,12,Zone Averaged,WORK_EFF_SCH,Clothing Insulation Schedule,N/A,CLOTHING_SCH,AIR_VELO_SCH,Yes,No,No
 People Internal Gains Nominal, FLOOR 2 OFFICE 2 PEOPLE,BLDG_OCC_SCH_OFFICE,FLOOR 2 OFFICE 2,178.37,9.6,9.6,5.380E-002,18.587,0.300,0.700,AutoCalculate,ACTIVITY_SCH,No,3.8200E-008,0,10,Zone Averaged,WORK_EFF_SCH,Clothing Insulation Schedule,N/A,CLOTHING_SCH,AIR_VELO_SCH,Yes,No,No
 People Internal Gains Nominal, FLOOR 2 OFFICE 3 PEOPLE,BLDG_OCC_SCH_OFFICE,FLOOR 2 OFFICE 3,278.71,15.0,15.0,5.380E-002,18.587,0.300,0.700,AutoCalculate,ACTIVITY_SCH,No,3.8200E-008,0,15,Zone Averaged,WORK_EFF_SCH,Clothing Insulation Schedule,N/A,CLOTHING_SCH,AIR_VELO_SCH,Yes,No,No
 People Internal Gains Nominal, FLOOR 2 OFFICE 4 PEOPLE,BLDG_OCC_SCH_OFFICE,FLOOR 2 OFFICE 4,325.16,17.5,17.5,5.380E-002,18.587,0.300,0.700,AutoCalculate,ACTIVITY_SCH,No,3.8200E-008,0,17,Zone Averaged,WORK_EFF_SCH,Clothing Insulation Schedule,N/A,CLOTHING_SCH,AIR_VELO_SCH,Yes,No,No
 People Internal Gains Nominal, FLOOR 2 OPERATING PEOPLE,BLDG_OCC_SCH_24_7,FLOOR 2 OPERATING,1790.80,96.3,96.3,5.380E-002,18.587,0.300,0.700,AutoCalculate,ACTIVITY_SCH,No,3.8200E-008,0,87,Zone Averaged,WORK_EFF_SCH,Clothing Insulation Schedule,N/A,CLOTHING_SCH,AIR_VELO_SCH,Yes,No,No
 People Internal Gains Nominal, FLOOR 2 PACU PEOPLE,BLDG_OCC_SCH_24_7,FLOOR 2 PACU,376.26,20.2,20.2,5.380E-002,18.587,0.300,0.700,AutoCalculate,ACTIVITY_SCH,No,3.8200E-008,0,18,Zone Averaged,WORK_EFF_SCH,Clothing Insulation Schedule,N/A,CLOTHING_SCH,AIR_VELO_SCH,Yes,No,No
 People Internal Gains Nominal, FLOOR 2 PATIENT 1 PEOPLE,BLDG_OCC_SCH_PATIENT,FLOOR 2 PATIENT 1,316.61,17.0,17.0,5.380E-002,18.587,0.300,0.700,AutoCalculate,ACTIVITY_SCH,No,3.8200E-008,0,17,Zone Averaged,WORK_EFF_SCH,Clothing Insulation Schedule,N/A,CLOTHING_SCH,AIR_VELO_SCH,Yes,No,No
 People Internal Gains Nominal, FLOOR 2 PATIENT 2 PEOPLE,BLDG_OCC_SCH_PATIENT,FLOOR 2 PATIENT 2,260.69,14.0,14.0,5.380E-002,18.587,0.300,0.700,AutoCalculate,ACTIVITY_SCH,No,3.8200E-008,0,14,Zone Averaged,WORK_EFF_SCH,Clothing Insulation Schedule,N/A,CLOTHING_SCH,AIR_VELO_SCH,Yes,No,No
 People Internal Gains Nominal, FLOOR 2 PROCEDURE 1 PEOPLE,BLDG_OCC_SCH_OFFICE,FLOOR 2 PROCEDURE 1,234.12,12.6,12.6,5.380E-002,18.587,0.300,0.700,AutoCalculate,ACTIVITY_SCH,No,3.8200E-008,0,13,Zone Averaged,WORK_EFF_SCH,Clothing Insulation Schedule,N/A,CLOTHING_SCH,AIR_VELO_SCH,Yes,No,No
 People Internal Gains Nominal, FLOOR 2 PROCEDURE 2 PEOPLE,BLDG_OCC_SCH_OFFICE,FLOOR 2 PROCEDURE 2,126.35,6.8,6.8,5.380E-002,18.587,0.300,0.700,AutoCalculate,ACTIVITY_SCH,No,3.8200E-008,0,7,Zone Averaged,WORK_EFF_SCH,Clothing Insulation Schedule,N/A,CLOTHING_SCH,AIR_VELO_SCH,Yes,No,No
 People Internal Gains Nominal, FLOOR 2 RECEPTION PEOPLE,BLDG_OCC_SCH_24_7,FLOOR 2 RECEPTION,162.58,52.5,52.5,0.323,3.097,0.300,0.700,AutoCalculate,ACTIVITY_SCH,No,3.8200E-008,0,47,Zone Averaged,WORK_EFF_SCH,Clothing Insulation Schedule,N/A,CLOTHING_SCH,AIR_VELO_SCH,Yes,No,No
 People Internal Gains Nominal, FLOOR 2 RESTROOM 1 PEOPLE,BLDG_OCC_SCH_24_7,FLOOR 2 RESTROOM 1,59.46,3.2,3.2,5.380E-002,18.588,0.300,0.700,AutoCalculate,ACTIVITY_SCH,No,3.8200E-008,0,3,Zone Averaged,WORK_EFF_SCH,Clothing Insulation Schedule,N/A,CLOTHING_SCH,AIR_VELO_SCH,Yes,No,No
 People Internal Gains Nominal, FLOOR 2 RESTROOM 2 PEOPLE,BLDG_OCC_SCH_24_7,FLOOR 2 RESTROOM 2,83.61,4.5,4.5,5.380E-002,18.587,0.300,0.700,AutoCalculate,ACTIVITY_SCH,No,3.8200E-008,0,4,Zone Averaged,WORK_EFF_SCH,Clothing Insulation Schedule,N/A,CLOTHING_SCH,AIR_VELO_SCH,Yes,No,No
 People Internal Gains Nominal, FLOOR 2 SOIL 1 PEOPLE,BLDG_OCC_SCH_24_7,FLOOR 2 SOIL 1,44.87,2.4,2.4,5.380E-002,18.588,0.300,0.700,AutoCalculate,ACTIVITY_SCH,No,3.8200E-008,0,2,Zone Averaged,WORK_EFF_SCH,Clothing Insulation Schedule,N/A,CLOTHING_SCH,AIR_VELO_SCH,Yes,No,No
 People Internal Gains Nominal, FLOOR 2 SOIL 2 PEOPLE,BLDG_OCC_SCH_24_7,FLOOR 2 SOIL 2,29.73,1.6,1.6,5.380E-002,18.588,0.300,0.700,AutoCalculate,ACTIVITY_SCH,No,3.8200E-008,0,1,Zone Averaged,WORK_EFF_SCH,Clothing Insulation Schedule,N/A,CLOTHING_SCH,AIR_VELO_SCH,Yes,No,No
 People Internal Gains Nominal, FLOOR 2 TRAUMA PEOPLE,BLDG_OCC_SCH_24_7,FLOOR 2 TRAUMA,416.21,22.4,22.4,5.380E-002,18.587,0.300,0.700,AutoCalculate,ACTIVITY_SCH,No,3.8200E-008,0,20,Zone Averaged,WORK_EFF_SCH,Clothing Insulation Schedule,N/A,CLOTHING_SCH,AIR_VELO_SCH,Yes,No,No
 People Internal Gains Nominal, FLOOR 2 TRIAGE PEOPLE,BLDG_OCC_SCH_24_7,FLOOR 2 TRIAGE,81.29,4.4,4.4,5.380E-002,18.587,0.300,0.700,AutoCalculate,ACTIVITY_SCH,No,3.8200E-008,0,4,Zone Averaged,WORK_EFF_SCH,Clothing Insulation Schedule,N/A,CLOTHING_SCH,AIR_VELO_SCH,Yes,No,No
 People Internal Gains Nominal, FLOOR 2 WAITING PEOPLE,BLDG_OCC_SCH_24_7,FLOOR 2 WAITING,362.32,117.0,117.0,0.323,3.097,0.300,0.700,AutoCalculate,ACTIVITY_SCH,No,3.8200E-008,0,105,Zone Averaged,WORK_EFF_SCH,Clothing Insulation Schedule,N/A,CLOTHING_SCH,AIR_VELO_SCH,Yes,No,No
 People Internal Gains Nominal, FLOOR 3 CLEAN PEOPLE,BLDG_OCC_SCH_24_7,FLOOR 3 CLEAN,46.45,2.5,2.5,5.380E-002,18.587,0.300,0.700,AutoCalculate,ACTIVITY_SCH,No,3.8200E-008,0,2,Zone Averaged,WORK_EFF_SCH,Clothing Insulation Schedule,N/A,CLOTHING_SCH,AIR_VELO_SCH,Yes,No,No
 People Internal Gains Nominal, FLOOR 3 ELEVATOR PEOPLE,BLDG_OCC_SCH_24_7,FLOOR 3 ELEVATOR,167.23,54.0,54.0,0.323,3.097,0.300,0.700,AutoCalculate,ACTIVITY_SCH,No,3.8200E-008,0,49,Zone Averaged,WORK_EFF_SCH,Clothing Insulation Schedule,N/A,CLOTHING_SCH,AIR_VELO_SCH,Yes,No,No
 People Internal Gains Nominal, FLOOR 3 EXAM PEOPLE,BLDG_OCC_SCH_OFFICE,FLOOR 3 EXAM,250.84,13.5,13.5,5.380E-002,18.587,0.300,0.700,AutoCalculate,ACTIVITY_SCH,No,3.8200E-008,0,13,Zone Averaged,WORK_EFF_SCH,Clothing Insulation Schedule,N/A,CLOTHING_SCH,AIR_VELO_SCH,Yes,No,No
 People Internal Gains Nominal, FLOOR 3 ICU PEOPLE,BLDG_OCC_SCH_24_7,FLOOR 3 ICU,195.10,10.5,10.5,5.380E-002,18.587,0.300,0.700,AutoCalculate,ACTIVITY_SCH,No,3.8200E-008,0,9,Zone Averaged,WORK_EFF_SCH,Clothing Insulation Schedule,N/A,CLOTHING_SCH,AIR_VELO_SCH,Yes,No,No
 People Internal Gains Nominal, FLOOR 3 NURSE STATION 1 PEOPLE,BLDG_OCC_SCH_24_7,FLOOR 3 NURSE STATION 1,279.45,15.0,15.0,5.380E-002,18.587,0.300,0.700,AutoCalculate,ACTIVITY_SCH,No,3.8200E-008,0,14,Zone Averaged,WORK_EFF_SCH,Clothing Insulation Schedule,N/A,CLOTHING_SCH,AIR_VELO_SCH,Yes,No,No
 People Internal Gains Nominal, FLOOR 3 NURSE STATION 2 PEOPLE,BLDG_OCC_SCH_24_7,FLOOR 3 NURSE STATION 2,222.97,12.0,12.0,5.380E-002,18.587,0.300,0.700,AutoCalculate,ACTIVITY_SCH,No,3.8200E-008,0,11,Zone Averaged,WORK_EFF_SCH,Clothing Insulation Schedule,N/A,CLOTHING_SCH,AIR_VELO_SCH,Yes,No,No
 People Internal Gains Nominal, FLOOR 3 NURSERY PEOPLE,BLDG_OCC_SCH_24_7,FLOOR 3 NURSERY,91.97,4.9,4.9,5.380E-002,18.587,0.300,0.700,AutoCalculate,ACTIVITY_SCH,No,3.8200E-008,0,4,Zone Averaged,WORK_EFF_SCH,Clothing Insulation Schedule,N/A,CLOTHING_SCH,AIR_VELO_SCH,Yes,No,No
 People Internal Gains Nominal, FLOOR 3 OFFICE PEOPLE,BLDG_OCC_SCH_OFFICE,FLOOR 3 OFFICE,250.84,13.5,13.5,5.380E-002,18.587,0.300,0.700,AutoCalculate,ACTIVITY_SCH,No,3.8200E-008,0,13,Zone Averaged,WORK_EFF_SCH,Clothing Insulation Schedule,N/A,CLOTHING_SCH,AIR_VELO_SCH,Yes,No,No
 People Internal Gains Nominal, FLOOR 3 OPERATING PEOPLE,BLDG_OCC_SCH_24_7,FLOOR 3 OPERATING,167.23,9.0,9.0,5.380E-002,18.587,0.300,0.700,AutoCalculate,ACTIVITY_SCH,No,3.8200E-008,0,8,Zone Averaged,WORK_EFF_SCH,Clothing Insulation Schedule,N/A,CLOTHING_SCH,AIR_VELO_SCH,Yes,No,No
 People Internal Gains Nominal, FLOOR 3 PATIENT 1 PEOPLE,BLDG_OCC_SCH_PATIENT,FLOOR 3 PATIENT 1,464.52,25.0,25.0,5.380E-002,18.587,0.300,0.700,AutoCalculate,ACTIVITY_SCH,No,3.8200E-008,0,25,Zone Averaged,WORK_EFF_SCH,Clothing Insulation Schedule,N/A,CLOTHING_SCH,AIR_VELO_SCH,Yes,No,No
 People Internal Gains Nominal, FLOOR 3 PATIENT 2 PEOPLE,BLDG_OCC_SCH_PATIENT,FLOOR 3 PATIENT 2,464.52,25.0,25.0,5.380E-002,18.587,0.300,0.700,AutoCalculate,ACTIVITY_SCH,No,3.8200E-008,0,25,Zone Averaged,WORK_EFF_SCH,Clothing Insulation Schedule,N/A,CLOTHING_SCH,AIR_VELO_SCH,Yes,No,No
 People Internal Gains Nominal, FLOOR 3 PATIENT 3 PEOPLE,BLDG_OCC_SCH_PATIENT,FLOOR 3 PATIENT 3,366.97,19.7,19.7,5.380E-002,18.587,0.300,0.700,AutoCalculate,ACTIVITY_SCH,No,3.8200E-008,0,20,Zone Averaged,WORK_EFF_SCH,Clothing Insulation Schedule,N/A,CLOTHING_SCH,AIR_VELO_SCH,Yes,No,No
 People Internal Gains Nominal, FLOOR 3 PATIENT 4 PEOPLE,BLDG_OCC_SCH_PATIENT,FLOOR 3 PATIENT 4,366.97,19.7,19.7,5.380E-002,18.587,0.300,0.700,AutoCalculate,ACTIVITY_SCH,No,3.8200E-008,0,20,Zone Averaged,WORK_EFF_SCH,Clothing Insulation Schedule,N/A,CLOTHING_SCH,AIR_VELO_SCH,Yes,No,No
 People Internal Gains Nominal, FLOOR 3 PROCEDURE PEOPLE,BLDG_OCC_SCH_OFFICE,FLOOR 3 PROCEDURE,66.89,3.6,3.6,5.380E-002,18.587,0.300,0.700,AutoCalculate,ACTIVITY_SCH,No,3.8200E-008,0,4,Zone Averaged,WORK_EFF_SCH,Clothing Insulation Schedule,N/A,CLOTHING_SCH,AIR_VELO_SCH,Yes,No,No
 People Internal Gains Nominal, FLOOR 3 SOIL PEOPLE,BLDG_OCC_SCH_24_7,FLOOR 3 SOIL,92.90,5.0,5.0,5.380E-002,18.587,0.300,0.700,AutoCalculate,ACTIVITY_SCH,No,3.8200E-008,0,4,Zone Averaged,WORK_EFF_SCH,Clothing Insulation Schedule,N/A,CLOTHING_SCH,AIR_VELO_SCH,Yes,No,No
 People Internal Gains Nominal, FLOOR 3 TRIAGE PEOPLE,BLDG_OCC_SCH_24_7,FLOOR 3 TRIAGE,139.35,7.5,7.5,5.380E-002,18.587,0.300,0.700,AutoCalculate,ACTIVITY_SCH,No,3.8200E-008,0,7,Zone Averaged,WORK_EFF_SCH,Clothing Insulation Schedule,N/A,CLOTHING_SCH,AIR_VELO_SCH,Yes,No,No
 People Internal Gains Nominal, FLOOR 3 WAITING PEOPLE,BLDG_OCC_SCH_24_7,FLOOR 3 WAITING,91.97,29.7,29.7,0.323,3.097,0.300,0.700,AutoCalculate,ACTIVITY_SCH,No,3.8200E-008,0,27,Zone Averaged,WORK_EFF_SCH,Clothing Insulation Schedule,N/A,CLOTHING_SCH,AIR_VELO_SCH,Yes,No,No
 People Internal Gains Nominal, FLOOR 4-6 CLEAN PEOPLE,BLDG_OCC_SCH_24_7,FLOOR 4-6 CLEAN,46.45,2.5,2.5,5.380E-002,18.587,0.300,0.700,AutoCalculate,ACTIVITY_SCH,No,3.8200E-008,0,2,Zone Averaged,WORK_EFF_SCH,Clothing Insulation Schedule,N/A,CLOTHING_SCH,AIR_VELO_SCH,Yes,No,No
 People Internal Gains Nominal, FLOOR 4-6 ELEVATOR PEOPLE,BLDG_OCC_SCH_24_7,FLOOR 4-6 ELEVATOR,167.23,54.0,54.0,0.323,3.097,0.300,0.700,AutoCalculate,ACTIVITY_SCH,No,3.8200E-008,0,49,Zone Averaged,WORK_EFF_SCH,Clothing Insulation Schedule,N/A,CLOTHING_SCH,AIR_VELO_SCH,Yes,No,No
 People Internal Gains Nominal, FLOOR 4-6 NURSE STATION PEOPLE,BLDG_OCC_SCH_24_7,FLOOR 4-6 NURSE STATION,279.45,15.0,15.0,5.380E-002,18.587,0.300,0.700,AutoCalculate,ACTIVITY_SCH,No,3.8200E-008,0,14,Zone Averaged,WORK_EFF_SCH,Clothing Insulation Schedule,N/A,CLOTHING_SCH,AIR_VELO_SCH,Yes,No,No
 People Internal Gains Nominal, FLOOR 4-6 OFFICE PEOPLE,BLDG_OCC_SCH_OFFICE,FLOOR 4-6 OFFICE,139.35,7.5,7.5,5.380E-002,18.587,0.300,0.700,AutoCalculate,ACTIVITY_SCH,No,3.8200E-008,0,7,Zone Averaged,WORK_EFF_SCH,Clothing Insulation Schedule,N/A,CLOTHING_SCH,AIR_VELO_SCH,Yes,No,No
 People Internal Gains Nominal, FLOOR 4-6 PATIENT 1 PEOPLE,BLDG_OCC_SCH_PATIENT,FLOOR 4-6 PATIENT 1,464.52,25.0,25.0,5.380E-002,18.587,0.300,0.700,AutoCalculate,ACTIVITY_SCH,No,3.8200E-008,0,25,Zone Averaged,WORK_EFF_SCH,Clothing Insulation Schedule,N/A,CLOTHING_SCH,AIR_VELO_SCH,Yes,No,No
 People Internal Gains Nominal, FLOOR 4-6 PATIENT 2 PEOPLE,BLDG_OCC_SCH_PATIENT,FLOOR 4-6 PATIENT 2,464.52,25.0,25.0,5.380E-002,18.587,0.300,0.700,AutoCalculate,ACTIVITY_SCH,No,3.8200E-008,0,25,Zone Averaged,WORK_EFF_SCH,Clothing Insulation Schedule,N/A,CLOTHING_SCH,AIR_VELO_SCH,Yes,No,No
 People Internal Gains Nominal, FLOOR 4-6 PATIENT 3 PEOPLE,BLDG_OCC_SCH_PATIENT,FLOOR 4-6 PATIENT 3,366.97,19.7,19.7,5.380E-002,18.587,0.300,0.700,AutoCalculate,ACTIVITY_SCH,No,3.8200E-008,0,20,Zone Averaged,WORK_EFF_SCH,Clothing Insulation Schedule,N/A,CLOTHING_SCH,AIR_VELO_SCH,Yes,No,No
 People Internal Gains Nominal, FLOOR 4-6 PATIENT 4 PEOPLE,BLDG_OCC_SCH_PATIENT,FLOOR 4-6 PATIENT 4,366.97,19.7,19.7,5.380E-002,18.587,0.300,0.700,AutoCalculate,ACTIVITY_SCH,No,3.8200E-008,0,20,Zone Averaged,WORK_EFF_SCH,Clothing Insulation Schedule,N/A,CLOTHING_SCH,AIR_VELO_SCH,Yes,No,No
 People Internal Gains Nominal, FLOOR 4-6 SOIL PEOPLE,BLDG_OCC_SCH_24_7,FLOOR 4-6 SOIL,92.90,5.0,5.0,5.380E-002,18.587,0.300,0.700,AutoCalculate,ACTIVITY_SCH,No,3.8200E-008,0,4,Zone Averaged,WORK_EFF_SCH,Clothing Insulation Schedule,N/A,CLOTHING_SCH,AIR_VELO_SCH,Yes,No,No
 People Internal Gains Nominal, FLOOR 7 CLEAN PEOPLE,BLDG_OCC_SCH_24_7,FLOOR 7 CLEAN,46.45,2.5,2.5,5.380E-002,18.587,0.300,0.700,AutoCalculate,ACTIVITY_SCH,No,3.8200E-008,0,2,Zone Averaged,WORK_EFF_SCH,Clothing Insulation Schedule,N/A,CLOTHING_SCH,AIR_VELO_SCH,Yes,No,No
 People Internal Gains Nominal, FLOOR 7 ELEVATOR PEOPLE,BLDG_OCC_SCH_24_7,FLOOR 7 ELEVATOR,167.23,54.0,54.0,0.323,3.097,0.300,0.700,AutoCalculate,ACTIVITY_SCH,No,3.8200E-008,0,49,Zone Averaged,WORK_EFF_SCH,Clothing Insulation Schedule,N/A,CLOTHING_SCH,AIR_VELO_SCH,Yes,No,No
 People Internal Gains Nominal, FLOOR 7 NURSE STATION PEOPLE,BLDG_OCC_SCH_24_7,FLOOR 7 NURSE STATION,279.45,15.0,15.0,5.380E-002,18.587,0.300,0.700,AutoCalculate,ACTIVITY_SCH,No,3.8200E-008,0,14,Zone Averaged,WORK_EFF_SCH,Clothing Insulation Schedule,N/A,CLOTHING_SCH,AIR_VELO_SCH,Yes,No,No
 People Internal Gains Nominal, FLOOR 7 OFFICE PEOPLE,BLDG_OCC_SCH_OFFICE,FLOOR 7 OFFICE,139.35,7.5,7.5,5.380E-002,18.587,0.300,0.700,AutoCalculate,ACTIVITY_SCH,No,3.8200E-008,0,7,Zone Averaged,WORK_EFF_SCH,Clothing Insulation Schedule,N/A,CLOTHING_SCH,AIR_VELO_SCH,Yes,No,No
 People Internal Gains Nominal, FLOOR 7 PATIENT 1 PEOPLE,BLDG_OCC_SCH_PATIENT,FLOOR 7 PATIENT 1,464.52,25.0,25.0,5.380E-002,18.587,0.300,0.700,AutoCalculate,ACTIVITY_SCH,No,3.8200E-008,0,25,Zone Averaged,WORK_EFF_SCH,Clothing Insulation Schedule,N/A,CLOTHING_SCH,AIR_VELO_SCH,Yes,No,No
 People Internal Gains Nominal, FLOOR 7 PATIENT 2 PEOPLE,BLDG_OCC_SCH_PATIENT,FLOOR 7 PATIENT 2,464.52,25.0,25.0,5.380E-002,18.587,0.300,0.700,AutoCalculate,ACTIVITY_SCH,No,3.8200E-008,0,25,Zone Averaged,WORK_EFF_SCH,Clothing Insulation Schedule,N/A,CLOTHING_SCH,AIR_VELO_SCH,Yes,No,No
 People Internal Gains Nominal, FLOOR 7 PATIENT 3 PEOPLE,BLDG_OCC_SCH_PATIENT,FLOOR 7 PATIENT 3,366.97,19.7,19.7,5.380E-002,18.587,0.300,0.700,AutoCalculate,ACTIVITY_SCH,No,3.8200E-008,0,20,Zone Averaged,WORK_EFF_SCH,Clothing Insulation Schedule,N/A,CLOTHING_SCH,AIR_VELO_SCH,Yes,No,No
 People Internal Gains Nominal, FLOOR 7 PATIENT 4 PEOPLE,BLDG_OCC_SCH_PATIENT,FLOOR 7 PATIENT 4,366.97,19.7,19.7,5.380E-002,18.587,0.300,0.700,AutoCalculate,ACTIVITY_SCH,No,3.8200E-008,0,20,Zone Averaged,WORK_EFF_SCH,Clothing Insulation Schedule,N/A,CLOTHING_SCH,AIR_VELO_SCH,Yes,No,No
 People Internal Gains Nominal, FLOOR 7 SOIL PEOPLE,BLDG_OCC_SCH_24_7,FLOOR 7 SOIL,92.90,5.0,5.0,5.380E-002,18.587,0.300,0.700,AutoCalculate,ACTIVITY_SCH,No,3.8200E-008,0,4,Zone Averaged,WORK_EFF_SCH,Clothing Insulation Schedule,N/A,CLOTHING_SCH,AIR_VELO_SCH,Yes,No,No
 People Internal Gains Nominal, MOB FLOOR 1 CORE PEOPLE,BLDG_OCC_SCH_OFFICE,MOB FLOOR 1 CORE,1279.74,68.9,68.9,5.380E-002,18.587,0.300,0.700,AutoCalculate,ACTIVITY_SCH,No,3.8200E-008,0,69,Zone Averaged,WORK_EFF_SCH,Clothing Insulation Schedule,N/A,CLOTHING_SCH,AIR_VELO_SCH,Yes,No,No
 People Internal Gains Nominal, MOB FLOOR 1 PERIMETER 1 PEOPLE,BLDG_OCC_SCH_OFFICE,MOB FLOOR 1 PERIMETER 1,212.52,11.4,11.4,5.380E-002,18.587,0.300,0.700,AutoCalculate,ACTIVITY_SCH,No,3.8200E-008,0,11,Zone Averaged,WORK_EFF_SCH,Clothing Insulation Schedule,N/A,CLOTHING_SCH,AIR_VELO_SCH,Yes,No,No
 People Internal Gains Nominal, MOB FLOOR 1 PERIMETER 2 PEOPLE,BLDG_OCC_SCH_OFFICE,MOB FLOOR 1 PERIMETER 2,153.29,8.2,8.2,5.380E-002,18.587,0.300,0.700,AutoCalculate,ACTIVITY_SCH,No,3.8200E-008,0,8,Zone Averaged,WORK_EFF_SCH,Clothing Insulation Schedule,N/A,CLOTHING_SCH,AIR_VELO_SCH,Yes,No,No
 People Internal Gains Nominal, MOB FLOOR 1 PERIMETER 3 PEOPLE,BLDG_OCC_SCH_OFFICE,MOB FLOOR 1 PERIMETER 3,212.52,11.4,11.4,5.380E-002,18.587,0.300,0.700,AutoCalculate,ACTIVITY_SCH,No,3.8200E-008,0,11,Zone Averaged,WORK_EFF_SCH,Clothing Insulation Schedule,N/A,CLOTHING_SCH,AIR_VELO_SCH,Yes,No,No
 People Internal Gains Nominal, MOB FLOOR 2-4 CORE PEOPLE,BLDG_OCC_SCH_OFFICE,MOB FLOOR 2-4 CORE,1147.35,61.7,61.7,5.380E-002,18.587,0.300,0.700,AutoCalculate,ACTIVITY_SCH,No,3.8200E-008,0,62,Zone Averaged,WORK_EFF_SCH,Clothing Insulation Schedule,N/A,CLOTHING_SCH,AIR_VELO_SCH,Yes,No,No
 People Internal Gains Nominal, MOB FLOOR 2-4 PERIMETER 1 PEOPLE,BLDG_OCC_SCH_OFFICE,MOB FLOOR 2-4 PERIMETER 1,202.06,10.9,10.9,5.380E-002,18.587,0.300,0.700,AutoCalculate,ACTIVITY_SCH,No,3.8200E-008,0,11,Zone Averaged,WORK_EFF_SCH,Clothing Insulation Schedule,N/A,CLOTHING_SCH,AIR_VELO_SCH,Yes,No,No
 People Internal Gains Nominal, MOB FLOOR 2-4 PERIMETER 2 PEOPLE,BLDG_OCC_SCH_OFFICE,MOB FLOOR 2-4 PERIMETER 2,153.29,8.2,8.2,5.380E-002,18.587,0.300,0.700,AutoCalculate,ACTIVITY_SCH,No,3.8200E-008,0,8,Zone Averaged,WORK_EFF_SCH,Clothing Insulation Schedule,N/A,CLOTHING_SCH,AIR_VELO_SCH,Yes,No,No
 People Internal Gains Nominal, MOB FLOOR 2-4 PERIMETER 3 PEOPLE,BLDG_OCC_SCH_OFFICE,MOB FLOOR 2-4 PERIMETER 3,202.06,10.9,10.9,5.380E-002,18.587,0.300,0.700,AutoCalculate,ACTIVITY_SCH,No,3.8200E-008,0,11,Zone Averaged,WORK_EFF_SCH,Clothing Insulation Schedule,N/A,CLOTHING_SCH,AIR_VELO_SCH,Yes,No,No
 People Internal Gains Nominal, MOB FLOOR 2-4 PERIMETER 4 PEOPLE,BLDG_OCC_SCH_OFFICE,MOB FLOOR 2-4 PERIMETER 4,153.29,8.2,8.2,5.380E-002,18.587,0.300,0.700,AutoCalculate,ACTIVITY_SCH,No,3.8200E-008,0,8,Zone Averaged,WORK_EFF_SCH,Clothing Insulation Schedule,N/A,CLOTHING_SCH,AIR_VELO_SCH,Yes,No,No
 People Internal Gains Nominal, MOB FLOOR 5 CORE PEOPLE,BLDG_OCC_SCH_OFFICE,MOB FLOOR 5 CORE,1147.35,61.7,61.7,5.380E-002,18.587,0.300,0.700,AutoCalculate,ACTIVITY_SCH,No,3.8200E-008,0,62,Zone Averaged,WORK_EFF_SCH,Clothing Insulation Schedule,N/A,CLOTHING_SCH,AIR_VELO_SCH,Yes,No,No
 People Internal Gains Nominal, MOB FLOOR 5 PERIMETER 1 PEOPLE,BLDG_OCC_SCH_OFFICE,MOB FLOOR 5 PERIMETER 1,202.06,10.9,10.9,5.380E-002,18.587,0.300,0.700,AutoCalculate,ACTIVITY_SCH,No,3.8200E-008,0,11,Zone Averaged,WORK_EFF_SCH,Clothing Insulation Schedule,N/A,CLOTHING_SCH,AIR_VELO_SCH,Yes,No,No
 People Internal Gains Nominal, MOB FLOOR 5 PERIMETER 2 PEOPLE,BLDG_OCC_SCH_OFFICE,MOB FLOOR 5 PERIMETER 2,153.29,8.2,8.2,5.380E-002,18.587,0.300,0.700,AutoCalculate,ACTIVITY_SCH,No,3.8200E-008,0,8,Zone Averaged,WORK_EFF_SCH,Clothing Insulation Schedule,N/A,CLOTHING_SCH,AIR_VELO_SCH,Yes,No,No
 People Internal Gains Nominal, MOB FLOOR 5 PERIMETER 3 PEOPLE,BLDG_OCC_SCH_OFFICE,MOB FLOOR 5 PERIMETER 3,202.06,10.9,10.9,5.380E-002,18.587,0.300,0.700,AutoCalculate,ACTIVITY_SCH,No,3.8200E-008,0,11,Zone Averaged,WORK_EFF_SCH,Clothing Insulation Schedule,N/A,CLOTHING_SCH,AIR_VELO_SCH,Yes,No,No
 People Internal Gains Nominal, MOB FLOOR 5 PERIMETER 4 PEOPLE,BLDG_OCC_SCH_OFFICE,MOB FLOOR 5 PERIMETER 4,153.29,8.2,8.2,5.380E-002,18.587,0.300,0.700,AutoCalculate,ACTIVITY_SCH,No,3.8200E-008,0,8,Zone Averaged,WORK_EFF_SCH,Clothing Insulation Schedule,N/A,CLOTHING_SCH,AIR_VELO_SCH,Yes,No,No
! <Lights Internal Gains Nominal>,Name,Schedule Name,Zone Name,Zone Floor Area {m2},# Zone Occupants,Lighting Level {W},Lights/Floor Area {W/m2},Lights per person {W/person},Fraction Return Air,Fraction Radiant,Fraction Short Wave,Fraction Convected,Fraction Replaceable,End-Use Category,Nominal Minimum Lighting Level {W},Nominal Maximum Lighting Level {W}
 Lights Internal Gains Nominal, FLOOR 1 CAFE_LIGHTS,BLDG_LIGHT_SCH_DINING,FLOOR 1 CAFE,373.28,401.8,3617.126,9.690,9.002,0.000,0.700,0.200,0.100,1.000,General,0.000,3617.126
 Lights Internal Gains Nominal, FLOOR 1 CLEAN_LIGHTS,BLDG_LIGHT_SCH_24_7,FLOOR 1 CLEAN,44.59,2.4,383.950,8.610,160.039,0.000,0.700,0.200,0.100,1.000,General,0.000,345.555
[...]
HeatTransfer Surface,MOB FLOOR 2-4 CORE ADIABATIC CEILING,Roof,,CTF - ConductionTransferFunction,INT-FLOOR-UNDERSIDE,3.003,1.918,,1147.35,1147.35,1147.35,180.00,0.00,28.96,39.62,0.00,MOB FLOOR 2-4 CORE ADIABATIC CEILING,Other/Same Surface Int Conv,ASHRAETARP,NoSun,NoWind,0.00,1.00,0.00,1.00,4
HeatTransfer Surface,MOB FLOOR 2-4 CORE INTERNAL MASS,Internal Mass,,CTF - ConductionTransferFunction,INTERIORFURNISHINGS,0.800,0.800,,2294.71,2294.71,2294.71,0.00,90.00,2294.71,1.00,0.00,MOB FLOOR 2-4 CORE INTERNAL MASS,Other/Same Surface Int Conv,ASHRAETARP,NoSun,NoWind,0.00,0.50,1.00,0.00,0
Zone Surfaces,MOB FLOOR 2-4 PERIMETER 1,8
HeatTransfer Surface,F49FB8,Wall,,CTF - ConductionTransferFunction,STANDARD_INT-WALL,6.299,3.242,,19.71,19.71,19.71,135.00,90.00,6.47,3.05,0.00,F49FB8,Other/Same Surface Int Conv,ASHRAETARP,NoSun,NoWind,0.50,0.50,0.50,0.50,4
HeatTransfer Surface,MOB FLOOR 2-4 PERIMETER 1 EXT WALL,Wall,,CTF - ConductionTransferFunction,STEEL-FRAMED_R-13 + R-15.6 CI_EXT-WALL,0.249,0.240,,89.19,148.64,89.19,270.00,90.00,48.77,3.05,0.00,ExternalEnvironment,DOE-2,ASHRAETARP,SunExposed,WindExposed,0.50,0.50,0.50,0.50,4
HeatTransfer Surface,MOB FLOOR 2-4 PERIMETER 1 EXT WALL_WINDOW_1,Window,MOB FLOOR 2-4 PERIMETER 1 EXT WALL,Window5 Detailed Fenestration,STD_WINDOW_UVALUE_1.647_SHGC_0.34_VT_0.69_WEST,N/A,1.641,No,59.46,59.46,59.46,270.00,90.00,48.67,1.22,0.00,ExternalEnvironment,DOE-2,ASHRAETARP,SunExposed,WindExposed,0.50,0.50,0.50,0.50,4
HeatTransfer Surface,48B8D5,Wall,,CTF - ConductionTransferFunction,STANDARD_INT-WALL,6.299,3.242,,19.71,19.71,19.71,45.00,90.00,6.47,3.05,0.00,48B8D5,Other/Same Surface Int Conv,ASHRAETARP,NoSun,NoWind,0.50,0.50,0.50,0.50,4
HeatTransfer Surface,6C038F,Wall,,CTF - ConductionTransferFunction,STANDARD_INT-WALL,6.299,3.242,,120.77,120.77,120.77,90.00,90.00,39.62,3.05,0.00,6C038F,Other/Same Surface Int Conv,ASHRAETARP,NoSun,NoWind,0.50,0.50,0.50,0.50,4
HeatTransfer Surface,MOB FLOOR 2-4 PERIMETER 1 ADIABATIC FLOOR,Floor,,CTF - ConductionTransferFunction,INT-FLOOR-TOPSIDE,3.003,1.736,,202.06,202.06,202.06,270.00,180.00,39.62,6.47,0.00,MOB FLOOR 2-4 PERIMETER 1 ADIABATIC FLOOR,Other/Same Surface Int Conv,ASHRAETARP,NoSun,NoWind,1.00,0.00,1.00,0.00,4
HeatTransfer Surface,MOB FLOOR 2-4 PERIMETER 1 ADIABATIC CEILING,Roof,,CTF - ConductionTransferFunction,INT-FLOOR-UNDERSIDE,3.003,1.918,,202.06,202.06,202.06,135.00,0.00,6.47,48.77,0.00,MOB FLOOR 2-4 PERIMETER 1 ADIABATIC CEILING,Other/Same Surface Int Conv,ASHRAETARP,NoSun,NoWind,0.00,1.00,0.00,1.00,4
HeatTransfer Surface,MOB FLOOR 2-4 PERIMETER 1 INTERNAL MASS,Internal Mass,,CTF - ConductionTransferFunction,INTERIORFURNISHINGS,0.800,0.800,,404.13,404.13,404.13,0.00,90.00,404.13,1.00,0.00,MOB FLOOR 2-4 PERIMETER 1 INTERNAL MASS,Other/Same Surface Int Conv,ASHRAETARP,NoSun,NoWind,0.00,0.50,1.00,0.00,0
Zone Surfaces,MOB FLOOR 2-4 PERIMETER 2,8
HeatTransfer Surface,22DFD3,Wall,,CTF - ConductionTransferFunction,STANDARD_INT-WALL,6.299,3.242,,19.71,19.71,19.71,315.00,90.00,6.47,3.05,0.00,22DFD3,Other/Same Surface Int Conv,ASHRAETARP,NoSun,NoWind,0.50,0.50,0.50,0.50,4
HeatTransfer Surface,5C8F00,Wall,,CTF - ConductionTransferFunction,STANDARD_INT-WALL,6.299,3.242,,88.26,88.26,88.26,0.00,90.00,28.96,3.05,0.00,5C8F00,Other/Same Surface Int Conv,ASHRAETARP,NoSun,NoWind,0.50,0.50,0.50,0.50,4
HeatTransfer Surface,CB6646,Wall,,CTF - ConductionTransferFunction,STANDARD_INT-WALL,6.299,3.242,,19.71,19.71,19.71,45.00,90.00,6.47,3.05,0.00,CB6646,Other/Same Surface Int Conv,ASHRAETARP,NoSun,NoWind,0.50,0.50,0.50,0.50,4
HeatTransfer Surface,MOB FLOOR 2-4 PERIMETER 2 EXT WALL,Wall,,CTF - ConductionTransferFunction,STEEL-FRAMED_R-13 + R-15.6 CI_EXT-WALL,0.249,0.240,,69.68,116.13,69.68,180.00,90.00,38.10,3.05,0.00,ExternalEnvironment,DOE-2,ASHRAETARP,SunExposed,WindExposed,0.50,0.50,0.52,0.48,4
HeatTransfer Surface,MOB FLOOR 2-4 PERIMETER 2 EXT WALL_WINDOW_1,Window,MOB FLOOR 2-4 PERIMETER 2 EXT WALL,Window5 Detailed Fenestration,STD_WINDOW_UVALUE_1.647_SHGC_0.34_VT_0.69,N/A,1.641,No,46.45,46.45,46.45,180.00,90.00,38.00,1.22,0.00,ExternalEnvironment,DOE-2,ASHRAETARP,SunExposed,WindExposed,0.50,0.50,0.69,0.31,4
HeatTransfer Surface,MOB FLOOR 2-4 PERIMETER 2 ADIABATIC FLOOR,Floor,,CTF - ConductionTransferFunction,INT-FLOOR-TOPSIDE,3.003,1.736,,153.29,153.29,153.29,135.00,180.00,6.47,38.10,0.00,MOB FLOOR 2-4 PERIMETER 2 ADIABATIC FLOOR,Other/Same Surface Int Conv,ASHRAETARP,NoSun,NoWind,1.00,0.00,1.00,0.00,4
HeatTransfer Surface,MOB FLOOR 2-4 PERIMETER 2 ADIABATIC CEILING,Roof,,CTF - ConductionTransferFunction,INT-FLOOR-UNDERSIDE,3.003,1.918,,153.29,153.29,153.29,180.00,0.00,38.10,6.47,0.00,MOB FLOOR 2-4 PERIMETER 2 ADIABATIC CEILING,Other/Same Surface Int Conv,ASHRAETARP,NoSun,NoWind,0.00,1.00,0.00,1.00,4
HeatTransfer Surface,MOB FLOOR 2-4 PERIMETER 2 INTERNAL MASS,Internal Mass,,CTF - ConductionTransferFunction,INTERIORFURNISHINGS,0.800,0.800,,306.58,306.58,306.58,0.00,90.00,306.58,1.00,0.00,MOB FLOOR 2-4 PERIMETER 2 INTERNAL MASS,Other/Same Surface Int Conv,ASHRAETARP,NoSun,NoWind,0.00,0.50,1.00,0.00,0
Zone Surfaces,MOB FLOOR 2-4 PERIMETER 3,8
HeatTransfer Surface,F32DF0,Wall,,CTF - ConductionTransferFunction,STANDARD_INT-WALL,6.299,3.242,,19.71,19.71,19.71,225.00,90.00,6.47,3.05,0.00,F32DF0,Other/Same Surface Int Conv,ASHRAETARP,NoSun,NoWind,0.50,0.50,0.50,0.50,4
HeatTransfer Surface,5CF66E,Wall,,CTF - ConductionTransferFunction,STANDARD_INT-WALL,6.299,3.242,,120.77,120.77,120.77,270.00,90.00,39.62,3.05,0.00,5CF66E,Other/Same Surface Int Conv,ASHRAETARP,NoSun,NoWind,0.50,0.50,0.50,0.50,4
HeatTransfer Surface,46E2F4,Wall,,CTF - ConductionTransferFunction,STANDARD_INT-WALL,6.299,3.242,,19.71,19.71,19.71,315.00,90.00,6.47,3.05,0.00,46E2F4,Other/Same Surface Int Conv,ASHRAETARP,NoSun,NoWind,0.50,0.50,0.50,0.50,4
HeatTransfer Surface,MOB FLOOR 2-4 PERIMETER 3 EXT WALL,Wall,,CTF - ConductionTransferFunction,STEEL-FRAMED_R-13 + R-15.6 CI_EXT-WALL,0.249,0.240,,89.19,148.64,89.19,90.00,90.00,48.77,3.05,0.00,ExternalEnvironment,DOE-2,ASHRAETARP,SunExposed,WindExposed,0.50,0.50,0.54,0.46,4
HeatTransfer Surface,MOB FLOOR 2-4 PERIMETER 3 EXT WALL_WINDOW_1,Window,MOB FLOOR 2-4 PERIMETER 3 EXT WALL,Window5 Detailed Fenestration,STD_WINDOW_UVALUE_1.647_SHGC_0.34_VT_0.69_EAST,N/A,1.641,No,59.46,59.46,59.46,90.00,90.00,48.67,1.22,0.00,ExternalEnvironment,DOE-2,ASHRAETARP,SunExposed,WindExposed,0.50,0.50,0.53,0.47,4
HeatTransfer Surface,MOB FLOOR 2-4 PERIMETER 3 ADIABATIC FLOOR,Floor,,CTF - ConductionTransferFunction,INT-FLOOR-TOPSIDE,3.003,1.736,,202.06,202.06,202.06,45.00,180.00,6.47,48.77,0.00,MOB FLOOR 2-4 PERIMETER 3 ADIABATIC FLOOR,Other/Same Surface Int Conv,ASHRAETARP,NoSun,NoWind,1.00,0.00,1.00,0.00,4
HeatTransfer Surface,MOB FLOOR 2-4 PERIMETER 3 ADIABATIC CEILING,Roof,,CTF - ConductionTransferFunction,INT-FLOOR-UNDERSIDE,3.003,1.918,,202.06,202.06,202.06,225.00,0.00,6.47,39.62,0.00,MOB FLOOR 2-4 PERIMETER 3 ADIABATIC CEILING,Other/Same Surface Int Conv,ASHRAETARP,NoSun,NoWind,0.00,1.00,0.00,1.00,4
HeatTransfer Surface,MOB FLOOR 2-4 PERIMETER 3 INTERNAL MASS,Internal Mass,,CTF - ConductionTransferFunction,INTERIORFURNISHINGS,0.800,0.800,,404.13,404.13,404.13,0.00,90.00,404.13,1.00,0.00,MOB FLOOR 2-4 PERIMETER 3 INTERNAL MASS,Other/Same Surface Int Conv,ASHRAETARP,NoSun,NoWind,0.00,0.50,1.00,0.00,0
Zone Surfaces,MOB FLOOR 2-4 PERIMETER 4,8
HeatTransfer Surface,2EB1A9,Wall,,CTF - ConductionTransferFunction,STANDARD_INT-WALL,6.299,3.242,,19.71,19.71,19.71,135.00,90.00,6.47,3.05,0.00,2EB1A9,Other/Same Surface Int Conv,ASHRAETARP,NoSun,NoWind,0.50,0.50,0.50,0.50,4
HeatTransfer Surface,646AAF,Wall,,CTF - ConductionTransferFunction,STANDARD_INT-WALL,6.299,3.242,,88.26,88.26,88.26,180.00,90.00,28.96,3.05,0.00,646AAF,Other/Same Surface Int Conv,ASHRAETARP,NoSun,NoWind,0.50,0.50,0.50,0.50,4
HeatTransfer Surface,707708,Wall,,CTF - ConductionTransferFunction,STANDARD_INT-WALL,6.299,3.242,,19.71,19.71,19.71,225.00,90.00,6.47,3.05,0.00,707708,Other/Same Surface Int Conv,ASHRAETARP,NoSun,NoWind,0.50,0.50,0.50,0.50,4
HeatTransfer Surface,MOB FLOOR 2-4 PERIMETER 4 EXT WALL,Wall,,CTF - ConductionTransferFunction,STEEL-FRAMED_R-13 + R-15.6 CI_EXT-WALL,0.249,0.240,,69.68,116.13,69.68,0.00,90.00,38.10,3.05,0.00,ExternalEnvironment,DOE-2,ASHRAETARP,SunExposed,WindExposed,0.50,0.50,0.52,0.48,4
HeatTransfer Surface,MOB FLOOR 2-4 PERIMETER 4 EXT WALL_WINDOW_1,Window,MOB FLOOR 2-4 PERIMETER 4 EXT WALL,Window5 Detailed Fenestration,STD_WINDOW_UVALUE_1.647_SHGC_0.34_VT_0.69_NORTH,N/A,1.641,No,46.45,46.45,46.45,0.00,90.00,38.00,1.22,0.00,ExternalEnvironment,DOE-2,ASHRAETARP,SunExposed,WindExposed,0.50,0.50,0.52,0.48,4
HeatTransfer Surface,MOB FLOOR 2-4 PERIMETER 4 ADIABATIC FLOOR,Floor,,CTF - ConductionTransferFunction,INT-FLOOR-TOPSIDE,3.003,1.736,,153.29,153.29,153.29,0.00,180.00,28.96,6.47,0.00,MOB FLOOR 2-4 PERIMETER 4 ADIABATIC FLOOR,Other/Same Surface Int Conv,ASHRAETARP,NoSun,NoWind,1.00,0.00,1.00,0.00,4
HeatTransfer Surface,MOB FLOOR 2-4 PERIMETER 4 ADIABATIC CEILING,Roof,,CTF - ConductionTransferFunction,INT-FLOOR-UNDERSIDE,3.003,1.918,,153.29,153.29,153.29,180.00,0.00,28.96,6.47,0.00,MOB FLOOR 2-4 PERIMETER 4 ADIABATIC CEILING,Other/Same Surface Int Conv,ASHRAETARP,NoSun,NoWind,0.00,1.00,0.00,1.00,4
HeatTransfer Surface,MOB FLOOR 2-4 PERIMETER 4 INTERNAL MASS,Internal Mass,,CTF - ConductionTransferFunction,INTERIORFURNISHINGS,0.800,0.800,,306.58,306.58,306.58,0.00,90.00,306.58,1.00,0.00,MOB FLOOR 2-4 PERIMETER 4 INTERNAL MASS,Other/Same Surface Int Conv,ASHRAETARP,NoSun,NoWind,0.00,0.50,1.00,0.00,0
Zone Surfaces,MOB FLOOR 5 CORE,7
HeatTransfer Surface,87E4BC,Wall,,CTF - ConductionTransferFunction,STANDARD_INT-WALL,6.299,3.242,,88.26,88.26,88.26,0.00,90.00,28.96,3.05,0.00,87E4BC,Other/Same Surface Int Conv,ASHRAETARP,NoSun,NoWind,0.50,0.50,0.50,0.50,4
HeatTransfer Surface,342B6E,Wall,,CTF - ConductionTransferFunction,STANDARD_INT-WALL,6.299,3.242,,120.77,120.77,120.77,90.00,90.00,39.62,3.05,0.00,342B6E,Other/Same Surface Int Conv,ASHRAETARP,NoSun,NoWind,0.50,0.50,0.50,0.50,4
HeatTransfer Surface,17DA3B,Wall,,CTF - ConductionTransferFunction,STANDARD_INT-WALL,6.299,3.242,,88.26,88.26,88.26,180.00,90.00,28.96,3.05,0.00,17DA3B,Other/Same Surface Int Conv,ASHRAETARP,NoSun,NoWind,0.50,0.50,0.50,0.50,4
HeatTransfer Surface,DFCFC3,Wall,,CTF - ConductionTransferFunction,STANDARD_INT-WALL,6.299,3.242,,120.77,120.77,120.77,270.00,90.00,39.62,3.05,0.00,DFCFC3,Other/Same Surface Int Conv,ASHRAETARP,NoSun,NoWind,0.50,0.50,0.50,0.50,4
HeatTransfer Surface,MOB FLOOR 5 CORE ADIABATIC FLOOR,Floor,,CTF - ConductionTransferFunction,INT-FLOOR-TOPSIDE,3.003,1.736,,1147.35,1147.35,1147.35,0.00,180.00,28.96,39.62,0.00,MOB FLOOR 5 CORE ADIABATIC FLOOR,Other/Same Surface Int Conv,ASHRAETARP,NoSun,NoWind,1.00,0.00,1.00,0.00,4
HeatTransfer Surface,MOB FLOOR 5 CORE ROOF,Roof,,CTF - ConductionTransferFunction,IEAD_R-30 CI_ROOF,0.188,0.182,,1147.35,1147.35,1147.35,180.00,0.00,28.96,39.62,0.00,ExternalEnvironment,DOE-2,ASHRAETARP,SunExposed,WindExposed,0.00,1.00,1.40E-003,1.00,4
HeatTransfer Surface,MOB FLOOR 5 CORE INTERNAL MASS,Internal Mass,,CTF - ConductionTransferFunction,INTERIORFURNISHINGS,0.800,0.800,,2294.71,2294.71,2294.71,0.00,90.00,2294.71,1.00,0.00,MOB FLOOR 5 CORE INTERNAL MASS,Other/Same Surface Int Conv,ASHRAETARP,NoSun,NoWind,0.00,0.50,1.00,0.00,0
Zone Surfaces,MOB FLOOR 5 PERIMETER 1,8
HeatTransfer Surface,341BF3,Wall,,CTF - ConductionTransferFunction,STANDARD_INT-WALL,6.299,3.242,,19.71,19.71,19.71,135.00,90.00,6.47,3.05,0.00,341BF3,Other/Same Surface Int Conv,ASHRAETARP,NoSun,NoWind,0.50,0.50,0.50,0.50,4
HeatTransfer Surface,MOB FLOOR 5 PERIMETER 1 EXT WALL,Wall,,CTF - ConductionTransferFunction,STEEL-FRAMED_R-13 + R-15.6 CI_EXT-WALL,0.249,0.240,,89.19,148.64,89.19,270.00,90.00,48.77,3.05,0.00,ExternalEnvironment,DOE-2,ASHRAETARP,SunExposed,WindExposed,0.50,0.50,0.50,0.50,4
HeatTransfer Surface,MOB FLOOR 5 PERIMETER 1 EXT WALL_WINDOW_1,Window,MOB FLOOR 5 PERIMETER 1 EXT WALL,Window5 Detailed Fenestration,STD_WINDOW_UVALUE_1.647_SHGC_0.34_VT_0.69_WEST,N/A,1.641,No,59.46,59.46,59.46,270.00,90.00,48.67,1.22,0.00,ExternalEnvironment,DOE-2,ASHRAETARP,SunExposed,WindExposed,0.50,0.50,0.50,0.50,4
HeatTransfer Surface,DB0BBA,Wall,,CTF - ConductionTransferFunction,STANDARD_INT-WALL,6.299,3.242,,19.71,19.71,19.71,45.00,90.00,6.47,3.05,0.00,DB0BBA,Other/Same Surface Int Conv,ASHRAETARP,NoSun,NoWind,0.50,0.50,0.50,0.50,4
HeatTransfer Surface,910237,Wall,,CTF - ConductionTransferFunction,STANDARD_INT-WALL,6.299,3.242,,120.77,120.77,120.77,90.00,90.00,39.62,3.05,0.00,910237,Other/Same Surface Int Conv,ASHRAETARP,NoSun,NoWind,0.50,0.50,0.50,0.50,4
HeatTransfer Surface,MOB FLOOR 5 PERIMETER 1 ADIABATIC FLOOR,Floor,,CTF - ConductionTransferFunction,INT-FLOOR-TOPSIDE,3.003,1.736,,202.06,202.06,202.06,270.00,180.00,39.62,6.47,0.00,MOB FLOOR 5 PERIMETER 1 ADIABATIC FLOOR,Other/Same Surface Int Conv,ASHRAETARP,NoSun,NoWind,1.00,0.00,1.00,0.00,4
HeatTransfer Surface,MOB FLOOR 5 PERIMETER 1 ROOF,Roof,,CTF - ConductionTransferFunction,IEAD_R-30 CI_ROOF,0.188,0.182,,202.06,202.06,202.06,135.00,0.00,6.47,48.77,0.00,ExternalEnvironment,DOE-2,ASHRAETARP,SunExposed,WindExposed,0.00,1.00,7.23E-007,1.00,4
HeatTransfer Surface,MOB FLOOR 5 PERIMETER 1 INTERNAL MASS,Internal Mass,,CTF - ConductionTransferFunction,INTERIORFURNISHINGS,0.800,0.800,,404.13,404.13,404.13,0.00,90.00,404.13,1.00,0.00,MOB FLOOR 5 PERIMETER 1 INTERNAL MASS,Other/Same Surface Int Conv,ASHRAETARP,NoSun,NoWind,0.00,0.50,1.00,0.00,0
Zone Surfaces,MOB FLOOR 5 PERIMETER 2,8
HeatTransfer Surface,A3D9FC,Wall,,CTF - ConductionTransferFunction,STANDARD_INT-WALL,6.299,3.242,,19.71,19.71,19.71,315.00,90.00,6.47,3.05,0.00,A3D9FC,Other/Same Surface Int Conv,ASHRAETARP,NoSun,NoWind,0.50,0.50,0.50,0.50,4
HeatTransfer Surface,14F530,Wall,,CTF - ConductionTransferFunction,STANDARD_INT-WALL,6.299,3.242,,88.26,88.26,88.26,0.00,90.00,28.96,3.05,0.00,14F530,Other/Same Surface Int Conv,ASHRAETARP,NoSun,NoWind,0.50,0.50,0.50,0.50,4
HeatTransfer Surface,BBD9AC,Wall,,CTF - ConductionTransferFunction,STANDARD_INT-WALL,6.299,3.242,,19.71,19.71,19.71,45.00,90.00,6.47,3.05,0.00,BBD9AC,Other/Same Surface Int Conv,ASHRAETARP,NoSun,NoWind,0.50,0.50,0.50,0.50,4
HeatTransfer Surface,MOB FLOOR 5 PERIMETER 2 EXT WALL,Wall,,CTF - ConductionTransferFunction,STEEL-FRAMED_R-13 + R-15.6 CI_EXT-WALL,0.249,0.240,,69.68,116.13,69.68,180.00,90.00,38.10,3.05,0.00,ExternalEnvironment,DOE-2,ASHRAETARP,SunExposed,WindExposed,0.50,0.50,0.52,0.48,4
HeatTransfer Surface,MOB FLOOR 5 PERIMETER 2 EXT WALL_WINDOW_1,Window,MOB FLOOR 5 PERIMETER 2 EXT WALL,Window5 Detailed Fenestration,STD_WINDOW_UVALUE_1.647_SHGC_0.34_VT_0.69,N/A,1.641,No,46.45,46.45,46.45,180.00,90.00,38.00,1.22,0.00,ExternalEnvironment,DOE-2,ASHRAETARP,SunExposed,WindExposed,0.50,0.50,0.69,0.31,4
HeatTransfer Surface,MOB FLOOR 5 PERIMETER 2 ADIABATIC FLOOR,Floor,,CTF - ConductionTransferFunction,INT-FLOOR-TOPSIDE,3.003,1.736,,153.29,153.29,153.29,135.00,180.00,6.47,38.10,0.00,MOB FLOOR 5 PERIMETER 2 ADIABATIC FLOOR,Other/Same Surface Int Conv,ASHRAETARP,NoSun,NoWind,1.00,0.00,1.00,0.00,4
HeatTransfer Surface,MOB FLOOR 5 PERIMETER 2 ROOF,Roof,,CTF - ConductionTransferFunction,IEAD_R-30 CI_ROOF,0.188,0.182,,153.29,153.29,153.29,180.00,0.00,38.10,6.47,0.00,ExternalEnvironment,DOE-2,ASHRAETARP,SunExposed,WindExposed,0.00,1.00,0.00,1.00,4
HeatTransfer Surface,MOB FLOOR 5 PERIMETER 2 INTERNAL MASS,Internal Mass,,CTF - ConductionTransferFunction,INTERIORFURNISHINGS,0.800,0.800,,306.58,306.58,306.58,0.00,90.00,306.58,1.00,0.00,MOB FLOOR 5 PERIMETER 2 INTERNAL MASS,Other/Same Surface Int Conv,ASHRAETARP,NoSun,NoWind,0.00,0.50,1.00,0.00,0
Zone Surfaces,MOB FLOOR 5 PERIMETER 3,8
HeatTransfer Surface,AB5F35,Wall,,CTF - ConductionTransferFunction,STANDARD_INT-WALL,6.299,3.242,,19.71,19.71,19.71,225.00,90.00,6.47,3.05,0.00,AB5F35,Other/Same Surface Int Conv,ASHRAETARP,NoSun,NoWind,0.50,0.50,0.50,0.50,4
HeatTransfer Surface,9563EE,Wall,,CTF - ConductionTransferFunction,STANDARD_INT-WALL,6.299,3.242,,120.77,120.77,120.77,270.00,90.00,39.62,3.05,0.00,9563EE,Other/Same Surface Int Conv,ASHRAETARP,NoSun,NoWind,0.50,0.50,0.50,0.50,4
HeatTransfer Surface,112B33,Wall,,CTF - ConductionTransferFunction,STANDARD_INT-WALL,6.299,3.242,,19.71,19.71,19.71,315.00,90.00,6.47,3.05,0.00,112B33,Other/Same Surface Int Conv,ASHRAETARP,NoSun,NoWind,0.50,0.50,0.50,0.50,4
HeatTransfer Surface,MOB FLOOR 5 PERIMETER 3 EXT WALL,Wall,,CTF - ConductionTransferFunction,STEEL-FRAMED_R-13 + R-15.6 CI_EXT-WALL,0.249,0.240,,89.19,148.64,89.19,90.00,90.00,48.77,3.05,0.00,ExternalEnvironment,DOE-2,ASHRAETARP,SunExposed,WindExposed,0.50,0.50,0.52,0.48,4
HeatTransfer Surface,MOB FLOOR 5 PERIMETER 3 EXT WALL_WINDOW_1,Window,MOB FLOOR 5 PERIMETER 3 EXT WALL,Window5 Detailed Fenestration,STD_WINDOW_UVALUE_1.647_SHGC_0.34_VT_0.69_EAST,N/A,1.641,No,59.46,59.46,59.46,90.00,90.00,48.67,1.22,0.00,ExternalEnvironment,DOE-2,ASHRAETARP,SunExposed,WindExposed,0.50,0.50,0.52,0.48,4
HeatTransfer Surface,MOB FLOOR 5 PERIMETER 3 ADIABATIC FLOOR,Floor,,CTF - ConductionTransferFunction,INT-FLOOR-TOPSIDE,3.003,1.736,,202.06,202.06,202.06,45.00,180.00,6.47,48.77,0.00,MOB FLOOR 5 PERIMETER 3 ADIABATIC FLOOR,Other/Same Surface Int Conv,ASHRAETARP,NoSun,NoWind,1.00,0.00,1.00,0.00,4
HeatTransfer Surface,MOB FLOOR 5 PERIMETER 3 ROOF,Roof,,CTF - ConductionTransferFunction,IEAD_R-30 CI_ROOF,0.188,0.182,,202.06,202.06,202.06,225.00,0.00,6.47,39.62,0.00,ExternalEnvironment,DOE-2,ASHRAETARP,SunExposed,WindExposed,0.00,1.00,3.74E-003,1.00,4
HeatTransfer Surface,MOB FLOOR 5 PERIMETER 3 INTERNAL MASS,Internal Mass,,CTF - ConductionTransferFunction,INTERIORFURNISHINGS,0.800,0.800,,404.13,404.13,404.13,0.00,90.00,404.13,1.00,0.00,MOB FLOOR 5 PERIMETER 3 INTERNAL MASS,Other/Same Surface Int Conv,ASHRAETARP,NoSun,NoWind,0.00,0.50,1.00,0.00,0
Zone Surfaces,MOB FLOOR 5 PERIMETER 4,8
HeatTransfer Surface,FCB84A,Wall,,CTF - ConductionTransferFunction,STANDARD_INT-WALL,6.299,3.242,,19.71,19.71,19.71,135.00,90.00,6.47,3.05,0.00,FCB84A,Other/Same Surface Int Conv,ASHRAETARP,NoSun,NoWind,0.50,0.50,0.50,0.50,4
HeatTransfer Surface,843462,Wall,,CTF - ConductionTransferFunction,STANDARD_INT-WALL,6.299,3.242,,88.26,88.26,88.26,180.00,90.00,28.96,3.05,0.00,843462,Other/Same Surface Int Conv,ASHRAETARP,NoSun,NoWind,0.50,0.50,0.50,0.50,4
HeatTransfer Surface,F6C992,Wall,,CTF - ConductionTransferFunction,STANDARD_INT-WALL,6.299,3.242,,19.71,19.71,19.71,225.00,90.00,6.47,3.05,0.00,F6C992,Other/Same Surface Int Conv,ASHRAETARP,NoSun,NoWind,0.50,0.50,0.50,0.50,4
HeatTransfer Surface,MOB FLOOR 5 PERIMETER 4 EXT WALL,Wall,,CTF - ConductionTransferFunction,STEEL-FRAMED_R-13 + R-15.6 CI_EXT-WALL,0.249,0.240,,69.68,116.13,69.68,0.00,90.00,38.10,3.05,0.00,ExternalEnvironment,DOE-2,ASHRAETARP,SunExposed,WindExposed,0.50,0.50,0.51,0.49,4
HeatTransfer Surface,MOB FLOOR 5 PERIMETER 4 EXT WALL_WINDOW_1,Window,MOB FLOOR 5 PERIMETER 4 EXT WALL,Window5 Detailed Fenestration,STD_WINDOW_UVALUE_1.647_SHGC_0.34_VT_0.69_NORTH,N/A,1.641,No,46.45,46.45,46.45,0.00,90.00,38.00,1.22,0.00,ExternalEnvironment,DOE-2,ASHRAETARP,SunExposed,WindExposed,0.50,0.50,0.52,0.48,4
HeatTransfer Surface,MOB FLOOR 5 PERIMETER 4 ADIABATIC FLOOR,Floor,,CTF - ConductionTransferFunction,INT-FLOOR-TOPSIDE,3.003,1.736,,153.29,153.29,153.29,0.00,180.00,28.96,6.47,0.00,MOB FLOOR 5 PERIMETER 4 ADIABATIC FLOOR,Other/Same Surface Int Conv,ASHRAETARP,NoSun,NoWind,1.00,0.00,1.00,0.00,4
HeatTransfer Surface,MOB FLOOR 5 PERIMETER 5 ROOF,Roof,,CTF - ConductionTransferFunction,IEAD_R-30 CI_ROOF,0.188,0.182,,153.29,153.29,153.29,180.00,0.00,28.96,6.47,0.00,ExternalEnvironment,DOE-2,ASHRAETARP,SunExposed,WindExposed,0.00,1.00,4.93E-003,1.00,4
HeatTransfer Surface,MOB FLOOR 5 PERIMETER 4 INTERNAL MASS,Internal Mass,,CTF - ConductionTransferFunction,INTERIORFURNISHINGS,0.800,0.800,,306.58,306.58,306.58,0.00,90.00,306.58,1.00,0.00,MOB FLOOR 5 PERIMETER 4 INTERNAL MASS,Other/Same Surface Int Conv,ASHRAETARP,NoSun,NoWind,0.00,0.50,1.00,0.00,0
