Program Version,EnergyPlus, Version 9.4.0-eabe692fc2, YMD=2020.12.04 09:14,
Var Type (reported time step),Var Report Type,Variable Name [Units]
Zone,Meter,Electricity:Facility [J]
Zone,Meter,Electricity:Building [J]
Zone,Meter,Electricity:Zone:SPACE1-1 [J]
Zone,Meter,InteriorLights:Electricity [J]
Zone,Meter,InteriorLights:Electricity:Zone:SPACE1-1 [J]
Zone,Meter,GeneralLights:InteriorLights:Electricity [J]
Zone,Meter,Electricity:Zone:SPACE2-1 [J]
Zone,Meter,InteriorLights:Electricity:Zone:SPACE2-1 [J]
Zone,Meter,Electricity:Zone:SPACE3-1 [J]
Zone,Meter,InteriorLights:Electricity:Zone:SPACE3-1 [J]
Zone,Meter,Electricity:Zone:SPACE4-1 [J]
Zone,Meter,InteriorLights:Electricity:Zone:SPACE4-1 [J]
Zone,Meter,Electricity:Zone:SPACE5-1 [J]
Zone,Meter,InteriorLights:Electricity:Zone:SPACE5-1 [J]
Zone,Meter,InteriorEquipment:Electricity [J]
Zone,Meter,InteriorEquipment:Electricity:Zone:SPACE1-1 [J]
Zone,Meter,General:InteriorEquipment:Electricity [J]
Zone,Meter,InteriorEquipment:Electricity:Zone:SPACE2-1 [J]
Zone,Meter,InteriorEquipment:Electricity:Zone:SPACE3-1 [J]
Zone,Meter,InteriorEquipment:Electricity:Zone:SPACE4-1 [J]
Zone,Meter,InteriorEquipment:Electricity:Zone:SPACE5-1 [J]
Zone,Meter,EnergyTransfer:Facility [J]
Zone,Meter,EnergyTransfer:Building [J]
Zone,Meter,EnergyTransfer:Zone:PLENUM-1 [J]
Zone,Meter,Heating:EnergyTransfer [J]
Zone,Meter,Heating:EnergyTransfer:Zone:PLENUM-1 [J]
Zone,Meter,General:Heating:EnergyTransfer [J]
Zone,Meter,Cooling:EnergyTransfer [J]
Zone,Meter,Cooling:EnergyTransfer:Zone:PLENUM-1 [J]
Zone,Meter,General:Cooling:EnergyTransfer [J]
Zone,Meter,EnergyTransfer:Zone:SPACE1-1 [J]
Zone,Meter,Heating:EnergyTransfer:Zone:SPACE1-1 [J]
Zone,Meter,Cooling:EnergyTransfer:Zone:SPACE1-1 [J]
Zone,Meter,EnergyTransfer:Zone:SPACE2-1 [J]
Zone,Meter,Heating:EnergyTransfer:Zone:SPACE2-1 [J]
Zone,Meter,Cooling:EnergyTransfer:Zone:SPACE2-1 [J]
Zone,Meter,EnergyTransfer:Zone:SPACE3-1 [J]
Zone,Meter,Heating:EnergyTransfer:Zone:SPACE3-1 [J]
Zone,Meter,Cooling:EnergyTransfer:Zone:SPACE3-1 [J]
Zone,Meter,EnergyTransfer:Zone:SPACE4-1 [J]
Zone,Meter,Heating:EnergyTransfer:Zone:SPACE4-1 [J]
Zone,Meter,Cooling:EnergyTransfer:Zone:SPACE4-1 [J]
Zone,Meter,EnergyTransfer:Zone:SPACE5-1 [J]
Zone,Meter,Heating:EnergyTransfer:Zone:SPACE5-1 [J]
Zone,Meter,Cooling:EnergyTransfer:Zone:SPACE5-1 [J]
Zone,Meter,ElectricityPurchased:Facility [J]
Zone,Meter,ElectricityPurchased:Plant [J]
Zone,Meter,Cogeneration:ElectricityPurchased [J]
Zone,Meter,General:Cogeneration:ElectricityPurchased [J]
Zone,Meter,ElectricitySurplusSold:Facility [J]
Zone,Meter,ElectricitySurplusSold:Plant [J]
Zone,Meter,Cogeneration:ElectricitySurplusSold [J]
Zone,Meter,General:Cogeneration:ElectricitySurplusSold [J]
Zone,Meter,ElectricityNet:Facility [J]
Zone,Meter,ElectricityNet:Plant [J]
Zone,Meter,Cogeneration:ElectricityNet [J]
Zone,Meter,General:Cogeneration:ElectricityNet [J]
Zone,Meter,EnergyTransfer:HVAC [J]
Zone,Meter,HeatingCoils:EnergyTransfer [J]
Zone,Meter,PlantLoopHeatingDemand:Facility [J]
Zone,Meter,PlantLoopHeatingDemand:HVAC [J]
Zone,Meter,HeatingCoils:PlantLoopHeatingDemand [J]
Zone,Meter,CoolingCoils:EnergyTransfer [J]
Zone,Meter,PlantLoopCoolingDemand:Facility [J]
Zone,Meter,PlantLoopCoolingDemand:HVAC [J]
Zone,Meter,CoolingCoils:PlantLoopCoolingDemand [J]
Zone,Meter,Electricity:HVAC [J]
Zone,Meter,Fans:Electricity [J]
Zone,Meter,General:Fans:Electricity [J]
Zone,Meter,EnergyTransfer:Plant [J]
Zone,Meter,Boilers:EnergyTransfer [J]
Zone,Meter,NaturalGas:Facility [J]
Zone,Meter,NaturalGas:Plant [J]
Zone,Meter,Heating:NaturalGas [J]
Zone,Meter,Boiler:Heating:NaturalGas [J]
Zone,Meter,Electricity:Plant [J]
Zone,Meter,Heating:Electricity [J]
Zone,Meter,Boiler Parasitic:Heating:Electricity [J]
Zone,Meter,Cooling:Electricity [J]
Zone,Meter,General:Cooling:Electricity [J]
Zone,Meter,Chillers:EnergyTransfer [J]
Zone,Meter,HeatRejection:EnergyTransfer [J]
Zone,Meter,General:HeatRejection:EnergyTransfer [J]
Zone,Meter,Pumps:Electricity [J]
Zone,Meter,General:Pumps:Electricity [J]
Zone,Meter,Carbon Equivalent:Facility [kg]
Zone,Meter,CarbonEquivalentEmissions:Carbon Equivalent [kg]
