Program Version,EnergyPlus, Version 9.4.0-eabe692fc2, YMD=2020.12.04 09:14
! This file shows details about the branches, nodes, and other
! elements of the flow connections.
! This file is intended for use in "debugging" potential problems
! that may also be detected by the program, but may be more easily
! identified by "eye".
! This file is also intended to support software which draws a
! schematic diagram of the HVAC system.
! ===============================================================
! #Nodes,<Number of Unique Nodes>
 #Nodes,87
! <Node>,<NodeNumber>,<Node Name>,<Node Fluid Type>,<# Times Node Referenced After Definition>
 Node,1,OUTSIDE AIR INLET NODE 1,Air,3
 Node,2,SPACE2-1 ATU SEC NODE,Air,3
 Node,3,SPACE3-1 ATU SEC NODE,Air,3
 Node,4,SPACE1-1 ATU SEC NODE,Air,3
 Node,5,SPACE4-1 ATU SEC NODE,Air,3
 Node,6,MIXED AIR NODE 1,Air,6
 Node,7,MAIN COOLING COIL 1 OUTLET NODE,Air,6
 Node,8,MAIN HEATING COIL 1 OUTLET NODE,Air,7
 Node,9,VAV SYS 1 INLET NODE,Air,3
 Node,10,VAV SYS 1 OUTLET NODE,Air,5
 Node,11,HW SUPPLY INLET NODE,Water,2
 Node,12,HW PUMP OUTLET NODE,Water,1
 Node,13,CENTRAL BOILER INLET NODE,Water,1
 Node,14,CENTRAL BOILER OUTLET NODE,Water,2
 Node,15,HEATING SUPPLY BYPASS INLET NODE,Water,1
 Node,16,HEATING SUPPLY BYPASS OUTLET NODE,Water,1
 Node,17,HEATING SUPPLY EXIT PIPE INLET NODE,Water,1
 Node,18,HW SUPPLY OUTLET NODE,Water,4
 Node,19,HW DEMAND INLET NODE,Water,2
 Node,20,HW DEMAND ENTRANCE PIPE OUTLET NODE,Water,1
 Node,21,HW DEMAND EXIT PIPE INLET NODE,Water,1
 Node,22,HW DEMAND OUTLET NODE,Water,2
 Node,23,SPACE1-1 ZONE COIL WATER IN NODE,Water,1
 Node,24,SPACE1-1 ZONE COIL WATER OUT NODE,Water,1
 Node,25,SPACE2-1 ZONE COIL WATER IN NODE,Water,1
 Node,26,SPACE2-1 ZONE COIL WATER OUT NODE,Water,1
 Node,27,SPACE3-1 ZONE COIL WATER IN NODE,Water,1
 Node,28,SPACE3-1 ZONE COIL WATER OUT NODE,Water,1
 Node,29,SPACE4-1 ZONE COIL WATER IN NODE,Water,1
 Node,30,SPACE4-1 ZONE COIL WATER OUT NODE,Water,1
 Node,31,SPACE5-1 ZONE COIL WATER IN NODE,Water,1
 Node,32,SPACE5-1 ZONE COIL WATER OUT NODE,Water,1
 Node,33,MAIN HEATING COIL 1 WATER INLET NODE,Water,2
 Node,34,MAIN HEATING COIL 1 WATER OUTLET NODE,Water,1
 Node,35,HEATING DEMAND BYPASS INLET NODE,Water,1
 Node,36,HEATING DEMAND BYPASS OUTLET NODE,Water,1
 Node,37,CW DEMAND INLET NODE,Water,2
 Node,38,CW DEMAND ENTRANCE PIPE OUTLET NODE,Water,1
 Node,39,MAIN COOLING COIL 1 WATER INLET NODE,Water,2
 Node,40,MAIN COOLING COIL 1 WATER OUTLET NODE,Water,1
 Node,41,CW DEMAND BYPASS INLET NODE,Water,1
 Node,42,CW DEMAND BYPASS OUTLET NODE,Water,1
 Node,43,CW DEMAND EXIT PIPE INLET NODE,Water,1
 Node,44,CW DEMAND OUTLET NODE,Water,2
 Node,45,SUPPLY SIDE EXIT PIPE INLET NODE,Water,1
 Node,46,CW SUPPLY OUTLET NODE,Water,4
 Node,47,CW SUPPLY INLET NODE,Water,2
 Node,48,CW PUMP OUTLET NODE,Water,1
 Node,49,CENTRAL CHILLER INLET NODE,Water,1
 Node,50,CENTRAL CHILLER OUTLET NODE,Water,2
 Node,51,CW SUPPLY BYPASS INLET NODE,Water,1
 Node,52,CW SUPPLY BYPASS OUTLET NODE,Water,1
 Node,53,SPACE1-1 NODE,Air,0
 Node,54,SPACE1-1 IN NODE,Air,3
 Node,55,SPACE1-1 OUT NODE,Air,1
 Node,56,SPACE2-1 NODE,Air,0
 Node,57,SPACE2-1 IN NODE,Air,3
 Node,58,SPACE2-1 OUT NODE,Air,1
 Node,59,SPACE3-1 NODE,Air,0
 Node,60,SPACE3-1 IN NODE,Air,3
 Node,61,SPACE3-1 OUT NODE,Air,1
 Node,62,SPACE4-1 NODE,Air,0
 Node,63,SPACE4-1 IN NODE,Air,3
 Node,64,SPACE4-1 OUT NODE,Air,1
 Node,65,SPACE5-1 NODE,Air,0
 Node,66,SPACE5-1 IN NODE,Air,3
 Node,67,SPACE5-1 OUT NODE,Air,1
 Node,68,ZONE EQ IN NODE,Air,2
 Node,69,PLENUM-1 OUT NODE,Air,2
 Node,70,CENTRAL CHILLER CONDENSER INLET NODE,Air,1
 Node,71,CENTRAL CHILLER CONDENSER OUTLET NODE,Air,0
 Node,72,SPACE1-1 ATU IN NODE,Air,2
 Node,73,SPACE2-1 ATU IN NODE,Air,2
 Node,74,SPACE3-1 ATU IN NODE,Air,2
 Node,75,SPACE4-1 ATU IN NODE,Air,2
 Node,76,SPACE5-1 ATU IN NODE,Air,2
 Node,77,SPACE1-1 ZONE COIL AIR IN NODE,Air,2
 Node,78,SPACE2-1 ZONE COIL AIR IN NODE,Air,2
 Node,79,SPACE3-1 ZONE COIL AIR IN NODE,Air,2
 Node,80,SPACE4-1 ZONE COIL AIR IN NODE,Air,2
 Node,81,SPACE1-1 ATU FAN INLET NODE,Air,1
 Node,82,SPACE2-1 ATU FAN OUTLET NODE,Air,1
 Node,83,SPACE3-1 ATU FAN INLET NODE,Air,1
 Node,84,SPACE4-1 ATU FAN OUTLET NODE,Air,1
 Node,85,RELIEF AIR OUTLET NODE 1,Air,2
 Node,86,RELIEF FAN AIR OUTLET NODE 1,Air,0
 Node,87,PLENUM-1 NODE,Air,0
! ===============================================================
! Suspicious nodes have 0 references.  It is normal for some nodes, however.
! Listing nodes with 0 references (culled from previous list):
! <Suspicious Node>,<NodeNumber>,<Node Name>,<Node Fluid Type>,<# Times Node Referenced After Definition>
 Suspicious Node,53,SPACE1-1 NODE,Air,0
 Suspicious Node,56,SPACE2-1 NODE,Air,0
 Suspicious Node,59,SPACE3-1 NODE,Air,0
 Suspicious Node,62,SPACE4-1 NODE,Air,0
 Suspicious Node,65,SPACE5-1 NODE,Air,0
 Suspicious Node,71,CENTRAL CHILLER CONDENSER OUTLET NODE,Air,0
 Suspicious Node,86,RELIEF FAN AIR OUTLET NODE 1,Air,0
 Suspicious Node,87,PLENUM-1 NODE,Air,0
! ===============================================================
! <#Branch Lists>,<Number of Branch Lists>
 #Branch Lists,5
! <Branch List>,<Branch List Count>,<Branch List Name>,<Loop Name>,<Loop Type>,<Number of Branches>
! <Branch>,<Branch Count>,<Branch Name>,<Loop Name>,<Loop Type>,<Branch Inlet Node Name>,<Branch Outlet Node Name>
 Branch List,1,VAV SYS 1 BRANCHES,VAV SYS 1,Air,1
   Branch,1,VAV SYS 1 MAIN BRANCH,VAV SYS 1,Air,VAV SYS 1 INLET NODE,VAV SYS 1 OUTLET NODE
 Branch List,2,HEATING SUPPLY SIDE BRANCHES,HOT WATER LOOP,Plant Supply,4
   Branch,1,HEATING SUPPLY INLET BRANCH,HOT WATER LOOP,Plant Supply,HW SUPPLY INLET NODE,HW PUMP OUTLET NODE
   Branch,2,CENTRAL BOILER BRANCH,HOT WATER LOOP,Plant Supply,CENTRAL BOILER INLET NODE,CENTRAL BOILER OUTLET NODE
   Branch,3,HEATING SUPPLY BYPASS BRANCH,HOT WATER LOOP,Plant Supply,HEATING SUPPLY BYPASS INLET NODE,HEATING SUPPLY BYPASS OUTLET NODE
   Branch,4,HEATING SUPPLY OUTLET BRANCH,HOT WATER LOOP,Plant Supply,HEATING SUPPLY EXIT PIPE INLET NODE,HW SUPPLY OUTLET NODE
 Branch List,3,HEATING DEMAND SIDE BRANCHES,HOT WATER LOOP,Plant Demand,9
   Branch,1,HEATING DEMAND INLET BRANCH,HOT WATER LOOP,Plant Demand,HW DEMAND INLET NODE,HW DEMAND ENTRANCE PIPE OUTLET NODE
   Branch,2,SPACE1-1 REHEAT BRANCH,HOT WATER LOOP,Plant Demand,SPACE1-1 ZONE COIL WATER IN NODE,SPACE1-1 ZONE COIL WATER OUT NODE
   Branch,3,SPACE2-1 REHEAT BRANCH,HOT WATER LOOP,Plant Demand,SPACE2-1 ZONE COIL WATER IN NODE,SPACE2-1 ZONE COIL WATER OUT NODE
   Branch,4,SPACE3-1 REHEAT BRANCH,HOT WATER LOOP,Plant Demand,SPACE3-1 ZONE COIL WATER IN NODE,SPACE3-1 ZONE COIL WATER OUT NODE
   Branch,5,SPACE4-1 REHEAT BRANCH,HOT WATER LOOP,Plant Demand,SPACE4-1 ZONE COIL WATER IN NODE,SPACE4-1 ZONE COIL WATER OUT NODE
   Branch,6,SPACE5-1 REHEAT BRANCH,HOT WATER LOOP,Plant Demand,SPACE5-1 ZONE COIL WATER IN NODE,SPACE5-1 ZONE COIL WATER OUT NODE
   Branch,7,MAIN HEATING COIL 1 BRANCH,HOT WATER LOOP,Plant Demand,MAIN HEATING COIL 1 WATER INLET NODE,MAIN HEATING COIL 1 WATER OUTLET NODE
   Branch,8,HEATING DEMAND BYPASS BRANCH,HOT WATER LOOP,Plant Demand,HEATING DEMAND BYPASS INLET NODE,HEATING DEMAND BYPASS OUTLET NODE
   Branch,9,HEATING DEMAND OUTLET BRANCH,HOT WATER LOOP,Plant Demand,HW DEMAND EXIT PIPE INLET NODE,HW DEMAND OUTLET NODE
 Branch List,4,COOLING SUPPLY SIDE BRANCHES,CHILLED WATER LOOP,Plant Supply,4
   Branch,1,CW PUMP BRANCH,CHILLED WATER LOOP,Plant Supply,CW SUPPLY INLET NODE,CW PUMP OUTLET NODE
   Branch,2,CENTRAL CHILLER BRANCH,CHILLED WATER LOOP,Plant Supply,CENTRAL CHILLER INLET NODE,CENTRAL CHILLER OUTLET NODE
   Branch,3,COOLING SUPPLY BYPASS BRANCH,CHILLED WATER LOOP,Plant Supply,CW SUPPLY BYPASS INLET NODE,CW SUPPLY BYPASS OUTLET NODE
   Branch,4,COOLING SUPPLY OUTLET,CHILLED WATER LOOP,Plant Supply,SUPPLY SIDE EXIT PIPE INLET NODE,CW SUPPLY OUTLET NODE
 Branch List,5,COOLING DEMAND SIDE BRANCHES,CHILLED WATER LOOP,Plant Demand,4
   Branch,1,COOLING DEMAND INLET,CHILLED WATER LOOP,Plant Demand,CW DEMAND INLET NODE,CW DEMAND ENTRANCE PIPE OUTLET NODE
   Branch,2,COOLING COIL BRANCH,CHILLED WATER LOOP,Plant Demand,MAIN COOLING COIL 1 WATER INLET NODE,MAIN COOLING COIL 1 WATER OUTLET NODE
   Branch,3,COOLING DEMAND BYPASS BRANCH,CHILLED WATER LOOP,Plant Demand,CW DEMAND BYPASS INLET NODE,CW DEMAND BYPASS OUTLET NODE
   Branch,4,COOLING DEMAND OUTLET,CHILLED WATER LOOP,Plant Demand,CW DEMAND EXIT PIPE INLET NODE,CW DEMAND OUTLET NODE
! ===============================================================
! <#Supply Air Paths>,<Number of Supply Air Paths>
 #Supply Air Paths,1
! <Supply Air Path>,<Supply Air Path Count>,<Supply Air Path Name>,<AirLoopHVAC Name>
! <#Components on Supply Air Path>,<Number of Components>
! <Supply Air Path Component>,<Component Count>,<Component Type>,<Component Name>,<AirLoopHVAC Name>
! <#Outlet Nodes on Supply Air Path Component>,<Number of Nodes>
! <Supply Air Path Component Nodes>,<Node Count>,<Component Type>,<Component Name>,<Inlet Node Name>,<Outlet Node Name>,<AirLoopHVAC Name>
 Supply Air Path,1,ZONE SUPPLY AIR PATH 1,VAV SYS 1
   #Components on Supply Air Path,1
   Supply Air Path Component,1,AIRLOOPHVAC:ZONESPLITTER,ZONE SUPPLY AIR SPLITTER 1,VAV SYS 1
     #Outlet Nodes on Supply Air Path Component,5
     Supply Air Path Component Nodes,1,AIRLOOPHVAC:ZONESPLITTER,ZONE SUPPLY AIR SPLITTER 1,ZONE EQ IN NODE,SPACE1-1 ATU IN NODE,VAV SYS 1
     Supply Air Path Component Nodes,2,AIRLOOPHVAC:ZONESPLITTER,ZONE SUPPLY AIR SPLITTER 1,ZONE EQ IN NODE,SPACE2-1 ATU IN NODE,VAV SYS 1
     Supply Air Path Component Nodes,3,AIRLOOPHVAC:ZONESPLITTER,ZONE SUPPLY AIR SPLITTER 1,ZONE EQ IN NODE,SPACE3-1 ATU IN NODE,VAV SYS 1
     Supply Air Path Component Nodes,4,AIRLOOPHVAC:ZONESPLITTER,ZONE SUPPLY AIR SPLITTER 1,ZONE EQ IN NODE,SPACE4-1 ATU IN NODE,VAV SYS 1
     Supply Air Path Component Nodes,5,AIRLOOPHVAC:ZONESPLITTER,ZONE SUPPLY AIR SPLITTER 1,ZONE EQ IN NODE,SPACE5-1 ATU IN NODE,VAV SYS 1
! <#Nodes on Supply Air Path>,<Number of Nodes>
! <Supply Air Path Node>,<Node Type>,<Node Count>,<Node Name>,<AirLoopHVAC Name>
#Nodes on Supply Air Path,6
   Supply Air Path Node,Inlet Node,1,ZONE EQ IN NODE,VAV SYS 1
   Supply Air Path Node,Outlet Node,2,SPACE1-1 ATU IN NODE,VAV SYS 1
   Supply Air Path Node,Outlet Node,3,SPACE2-1 ATU IN NODE,VAV SYS 1
   Supply Air Path Node,Outlet Node,4,SPACE3-1 ATU IN NODE,VAV SYS 1
   Supply Air Path Node,Outlet Node,5,SPACE4-1 ATU IN NODE,VAV SYS 1
   Supply Air Path Node,Outlet Node,6,SPACE5-1 ATU IN NODE,VAV SYS 1
! ===============================================================
! <#Return Air Paths>,<Number of Return Air Paths>
 #Return Air Paths,1
! <Return Air Path>,<Return Air Path Count>,<Return Air Path Name>,<AirLoopHVAC Name>
! <#Components on Return Air Path>,<Number of Components>
! <Return Air Path Component>,<Component Count>,<Component Type>,<Component Name>,<AirLoopHVAC Name>
! <#Inlet Nodes on Return Air Path Component>,<Number of Nodes>
! <Return Air Path Component Nodes>,<Node Count>,<Component Type>,<Component Name>,<Inlet Node Name>,<Outlet Node Name>,<AirLoopHVAC Name>
 Return Air Path,1,RETURNAIRPATH1,VAV SYS 1
   #Components on Return Air Path,1
   Return Air Path Component,1,AIRLOOPHVAC:RETURNPLENUM,RETURN-PLENUM-1,VAV SYS 1
     #Inlet Nodes on Return Air Path Component,5
     Return Air Path Component Nodes,1,AIRLOOPHVAC:RETURNPLENUM,RETURN-PLENUM-1,SPACE1-1 OUT NODE,PLENUM-1 OUT NODE,VAV SYS 1
     Return Air Path Component Nodes,2,AIRLOOPHVAC:RETURNPLENUM,RETURN-PLENUM-1,SPACE2-1 OUT NODE,PLENUM-1 OUT NODE,VAV SYS 1
     Return Air Path Component Nodes,3,AIRLOOPHVAC:RETURNPLENUM,RETURN-PLENUM-1,SPACE3-1 OUT NODE,PLENUM-1 OUT NODE,VAV SYS 1
     Return Air Path Component Nodes,4,AIRLOOPHVAC:RETURNPLENUM,RETURN-PLENUM-1,SPACE4-1 OUT NODE,PLENUM-1 OUT NODE,VAV SYS 1
     Return Air Path Component Nodes,5,AIRLOOPHVAC:RETURNPLENUM,RETURN-PLENUM-1,SPACE5-1 OUT NODE,PLENUM-1 OUT NODE,VAV SYS 1
! <#Nodes on Return Air Path>,<Number of Nodes>
! <Return Air Path Node>,<Node Type>,<Node Count>,<Node Name>,<AirLoopHVAC Name>
   #Nodes on Return Air Path,6
   Return Air Path Node,Outlet Node,1,PLENUM-1 OUT NODE,VAV SYS 1
   Return Air Path Node,Inlet Node,2,SPACE1-1 OUT NODE,VAV SYS 1
   Return Air Path Node,Inlet Node,3,SPACE2-1 OUT NODE,VAV SYS 1
   Return Air Path Node,Inlet Node,4,SPACE3-1 OUT NODE,VAV SYS 1
   Return Air Path Node,Inlet Node,5,SPACE4-1 OUT NODE,VAV SYS 1
   Return Air Path Node,Inlet Node,6,SPACE5-1 OUT NODE,VAV SYS 1
! ===============================================================
! #Outdoor Air Nodes,<Number of Outdoor Air Nodes>
 #Outdoor Air Nodes,2
! <Outdoor Air Node>,<NodeNumber>,<Node Name>
 Outdoor Air Node,1,OUTSIDE AIR INLET NODE 1
 Outdoor Air Node,70,CENTRAL CHILLER CONDENSER INLET NODE
! ===============================================================
! <#Component Sets>,<Number of Component Sets>
 #Component Sets,41
! <Component Set>,<Component Set Count>,<Parent Object Type>,<Parent Object Name>,<Component Type>,<Component Name>,<Inlet Node ID>,<Outlet Node ID>,<Description>
 Component Set,1,BRANCH,VAV SYS 1 MAIN BRANCH,AIRLOOPHVAC:OUTDOORAIRSYSTEM,OA SYS 1,VAV SYS 1 INLET NODE,MIXED AIR NODE 1,Air Nodes
 Component Set,2,BRANCH,VAV SYS 1 MAIN BRANCH,COIL:COOLING:WATER,MAIN COOLING COIL 1,MIXED AIR NODE 1,MAIN COOLING COIL 1 OUTLET NODE,Air Nodes
 Component Set,3,BRANCH,VAV SYS 1 MAIN BRANCH,COIL:HEATING:WATER,MAIN HEATING COIL 1,MAIN COOLING COIL 1 OUTLET NODE,MAIN HEATING COIL 1 OUTLET NODE,Air Nodes
 Component Set,4,BRANCH,VAV SYS 1 MAIN BRANCH,FAN:VARIABLEVOLUME,SUPPLY FAN 1,MAIN HEATING COIL 1 OUTLET NODE,VAV SYS 1 OUTLET NODE,Air Nodes
 Component Set,5,BRANCH,HEATING SUPPLY INLET BRANCH,PUMP:VARIABLESPEED,HW CIRC PUMP,HW SUPPLY INLET NODE,HW PUMP OUTLET NODE,Water Nodes
 Component Set,6,BRANCH,CENTRAL BOILER BRANCH,BOILER:HOTWATER,CENTRAL BOILER,CENTRAL BOILER INLET NODE,CENTRAL BOILER OUTLET NODE,Hot Water Nodes
 Component Set,7,BRANCH,HEATING SUPPLY BYPASS BRANCH,PIPE:ADIABATIC,HEATING SUPPLY SIDE BYPASS,HEATING SUPPLY BYPASS INLET NODE,HEATING SUPPLY BYPASS OUTLET NODE,Pipe Nodes
 Component Set,8,BRANCH,HEATING SUPPLY OUTLET BRANCH,PIPE:ADIABATIC,HEATING SUPPLY OUTLET,HEATING SUPPLY EXIT PIPE INLET NODE,HW SUPPLY OUTLET NODE,Pipe Nodes
 Component Set,9,BRANCH,HEATING DEMAND INLET BRANCH,PIPE:ADIABATIC,HEATING DEMAND INLET PIPE,HW DEMAND INLET NODE,HW DEMAND ENTRANCE PIPE OUTLET NODE,Pipe Nodes
 Component Set,10,BRANCH,HEATING DEMAND OUTLET BRANCH,PIPE:ADIABATIC,HEATING DEMAND OUTLET PIPE,HW DEMAND EXIT PIPE INLET NODE,HW DEMAND OUTLET NODE,Pipe Nodes
 Component Set,11,BRANCH,SPACE1-1 REHEAT BRANCH,COIL:HEATING:WATER,SPACE1-1 ZONE COIL,SPACE1-1 ZONE COIL WATER IN NODE,SPACE1-1 ZONE COIL WATER OUT NODE,Water Nodes
 Component Set,12,BRANCH,SPACE2-1 REHEAT BRANCH,COIL:HEATING:WATER,SPACE2-1 ZONE COIL,SPACE2-1 ZONE COIL WATER IN NODE,SPACE2-1 ZONE COIL WATER OUT NODE,Water Nodes
 Component Set,13,BRANCH,SPACE3-1 REHEAT BRANCH,COIL:HEATING:WATER,SPACE3-1 ZONE COIL,SPACE3-1 ZONE COIL WATER IN NODE,SPACE3-1 ZONE COIL WATER OUT NODE,Water Nodes
 Component Set,14,BRANCH,SPACE4-1 REHEAT BRANCH,COIL:HEATING:WATER,SPACE4-1 ZONE COIL,SPACE4-1 ZONE COIL WATER IN NODE,SPACE4-1 ZONE COIL WATER OUT NODE,Water Nodes
 Component Set,15,BRANCH,SPACE5-1 REHEAT BRANCH,COIL:HEATING:WATER,SPACE5-1 ZONE COIL,SPACE5-1 ZONE COIL WATER IN NODE,SPACE5-1 ZONE COIL WATER OUT NODE,Water Nodes
 Component Set,16,BRANCH,MAIN HEATING COIL 1 BRANCH,COIL:HEATING:WATER,MAIN HEATING COIL 1,MAIN HEATING COIL 1 WATER INLET NODE,MAIN HEATING COIL 1 WATER OUTLET NODE,Water Nodes
 Component Set,17,BRANCH,HEATING DEMAND BYPASS BRANCH,PIPE:ADIABATIC,HEATING DEMAND BYPASS,HEATING DEMAND BYPASS INLET NODE,HEATING DEMAND BYPASS OUTLET NODE,Pipe Nodes
 Component Set,18,BRANCH,COOLING DEMAND INLET,PIPE:ADIABATIC,COOLING DEMAND SIDE INLET PIPE,CW DEMAND INLET NODE,CW DEMAND ENTRANCE PIPE OUTLET NODE,Pipe Nodes
 Component Set,19,BRANCH,COOLING COIL BRANCH,COIL:COOLING:WATER,MAIN COOLING COIL 1,MAIN COOLING COIL 1 WATER INLET NODE,MAIN COOLING COIL 1 WATER OUTLET NODE,Water Nodes
 Component Set,20,BRANCH,COOLING DEMAND BYPASS BRANCH,PIPE:ADIABATIC,COOLING DEMAND SIDE BYPASS,CW DEMAND BYPASS INLET NODE,CW DEMAND BYPASS OUTLET NODE,Pipe Nodes
 Component Set,21,BRANCH,COOLING DEMAND OUTLET,PIPE:ADIABATIC,CW DEMAND SIDE OUTLET PIPE,CW DEMAND EXIT PIPE INLET NODE,CW DEMAND OUTLET NODE,Pipe Nodes
 Component Set,22,BRANCH,COOLING SUPPLY OUTLET,PIPE:ADIABATIC,SUPPLY SIDE OUTLET PIPE,SUPPLY SIDE EXIT PIPE INLET NODE,CW SUPPLY OUTLET NODE,Pipe Nodes
 Component Set,23,BRANCH,CW PUMP BRANCH,PUMP:VARIABLESPEED,CW CIRC PUMP,CW SUPPLY INLET NODE,CW PUMP OUTLET NODE,Water Nodes
 Component Set,24,BRANCH,CENTRAL CHILLER BRANCH,CHILLER:ELECTRIC,CENTRAL CHILLER,CENTRAL CHILLER INLET NODE,CENTRAL CHILLER OUTLET NODE,Chilled Water Nodes
 Component Set,25,BRANCH,COOLING SUPPLY BYPASS BRANCH,PIPE:ADIABATIC,SUPPLY SIDE BYPASS,CW SUPPLY BYPASS INLET NODE,CW SUPPLY BYPASS OUTLET NODE,Pipe Nodes
 Component Set,26,ZONEHVAC:AIRDISTRIBUTIONUNIT,SPACE1-1 ATU,AIRTERMINAL:SINGLEDUCT:SERIESPIU:REHEAT,SPACE1-1 VAV REHEAT,SPACE1-1 ATU IN NODE,SPACE1-1 IN NODE,Air Nodes
 Component Set,27,ZONEHVAC:AIRDISTRIBUTIONUNIT,SPACE2-1 ATU,AIRTERMINAL:SINGLEDUCT:PARALLELPIU:REHEAT,SPACE2-1 VAV REHEAT,SPACE2-1 ATU IN NODE,SPACE2-1 IN NODE,Air Nodes
 Component Set,28,ZONEHVAC:AIRDISTRIBUTIONUNIT,SPACE3-1 ATU,AIRTERMINAL:SINGLEDUCT:SERIESPIU:REHEAT,SPACE3-1 VAV REHEAT,SPACE3-1 ATU IN NODE,SPACE3-1 IN NODE,Air Nodes
 Component Set,29,ZONEHVAC:AIRDISTRIBUTIONUNIT,SPACE4-1 ATU,AIRTERMINAL:SINGLEDUCT:PARALLELPIU:REHEAT,SPACE4-1 VAV REHEAT,SPACE4-1 ATU IN NODE,SPACE4-1 IN NODE,Air Nodes
 Component Set,30,ZONEHVAC:AIRDISTRIBUTIONUNIT,SPACE5-1 ATU,AIRTERMINAL:SINGLEDUCT:CONSTANTVOLUME:REHEAT,SPACE5-1 CV REHEAT,SPACE5-1 ATU IN NODE,SPACE5-1 IN NODE,Air Nodes
 Component Set,31,AIRTERMINAL:SINGLEDUCT:SERIESPIU:REHEAT,SPACE1-1 VAV REHEAT,COIL:HEATING:WATER,SPACE1-1 ZONE COIL,SPACE1-1 ZONE COIL AIR IN NODE,SPACE1-1 IN NODE,Air Nodes
 Component Set,32,AIRTERMINAL:SINGLEDUCT:PARALLELPIU:REHEAT,SPACE2-1 VAV REHEAT,COIL:HEATING:WATER,SPACE2-1 ZONE COIL,SPACE2-1 ZONE COIL AIR IN NODE,SPACE2-1 IN NODE,Air Nodes
 Component Set,33,AIRTERMINAL:SINGLEDUCT:SERIESPIU:REHEAT,SPACE3-1 VAV REHEAT,COIL:HEATING:WATER,SPACE3-1 ZONE COIL,SPACE3-1 ZONE COIL AIR IN NODE,SPACE3-1 IN NODE,Air Nodes
 Component Set,34,AIRTERMINAL:SINGLEDUCT:PARALLELPIU:REHEAT,SPACE4-1 VAV REHEAT,COIL:HEATING:WATER,SPACE4-1 ZONE COIL,SPACE4-1 ZONE COIL AIR IN NODE,SPACE4-1 IN NODE,Air Nodes
 Component Set,35,AIRTERMINAL:SINGLEDUCT:CONSTANTVOLUME:REHEAT,SPACE5-1 CV REHEAT,COIL:HEATING:WATER,SPACE5-1 ZONE COIL,SPACE5-1 ATU IN NODE,SPACE5-1 IN NODE,Air Nodes
 Component Set,36,AIRTERMINAL:SINGLEDUCT:SERIESPIU:REHEAT,SPACE1-1 VAV REHEAT,FAN:CONSTANTVOLUME,SPACE1-1 PIU FAN,SPACE1-1 ATU FAN INLET NODE,SPACE1-1 ZONE COIL AIR IN NODE,Air Nodes
 Component Set,37,AIRTERMINAL:SINGLEDUCT:PARALLELPIU:REHEAT,SPACE2-1 VAV REHEAT,FAN:CONSTANTVOLUME,SPACE2-1 PIU FAN,SPACE2-1 ATU SEC NODE,SPACE2-1 ATU FAN OUTLET NODE,Air Nodes
 Component Set,38,AIRTERMINAL:SINGLEDUCT:SERIESPIU:REHEAT,SPACE3-1 VAV REHEAT,FAN:CONSTANTVOLUME,SPACE3-1 PIU FAN,SPACE3-1 ATU FAN INLET NODE,SPACE3-1 ZONE COIL AIR IN NODE,Air Nodes
 Component Set,39,AIRTERMINAL:SINGLEDUCT:PARALLELPIU:REHEAT,SPACE4-1 VAV REHEAT,FAN:CONSTANTVOLUME,SPACE4-1 PIU FAN,SPACE4-1 ATU SEC NODE,SPACE4-1 ATU FAN OUTLET NODE,Air Nodes
 Component Set,40,AIRLOOPHVAC:OUTDOORAIRSYSTEM,OA SYS 1,FAN:VARIABLEVOLUME,RELIEF FAN 1,RELIEF AIR OUTLET NODE 1,RELIEF FAN AIR OUTLET NODE 1,Air Nodes
 Component Set,41,AIRLOOPHVAC:OUTDOORAIRSYSTEM,OA SYS 1,OUTDOORAIR:MIXER,OA MIXING BOX 1,OUTSIDE AIR INLET NODE 1,MIXED AIR NODE 1,Air Nodes
! ===============================================================
! <# Plant Loops>,<Number of Plant Loops>
 #Plant Loops,2
! <Plant Loop>,<Plant Loop Name>,<Loop Type>,<Inlet Node Name>,<Outlet Node Name>,<Branch List>,<Connector List>
! <Plant Loop Connector>,<Connector Type>,<Connector Name>,<Loop Name>,<Loop Type>,<Number of Inlets/Outlets>
! <Plant Loop Connector Branches>,<Connector Node Count>,<Connector Type>,<Connector Name>,<Inlet Branch>,<Outlet Branch>,<Loop Name>,<Loop Type>
! <Plant Loop Connector Nodes>,<Connector Node Count>,<Connector Type>,<Connector Name>,<Inlet Node>,<Outlet Node>,<Loop Name>,<Loop Type>
! <Plant Loop Supply Connection>,<Plant Loop Name>,<Supply Side Outlet Node Name>,<Demand Side Inlet Node Name>
! <Plant Loop Return Connection>,<Plant Loop Name>,<Demand Side Outlet Node Name>,<Supply Side Inlet Node Name>
 Plant Loop,HOT WATER LOOP,Demand,HW DEMAND INLET NODE,HW DEMAND OUTLET NODE,HEATING DEMAND SIDE BRANCHES,HEATING DEMAND SIDE CONNECTORS
   Plant Loop Connector,Splitter,HEATING DEMAND SPLITTER,HOT WATER LOOP,Demand,7
     Plant Loop Connector Branches,1,Splitter,HEATING DEMAND SPLITTER,HEATING DEMAND INLET BRANCH,SPACE1-1 REHEAT BRANCH,HOT WATER LOOP,Demand
     Plant Loop Connector Nodes,   1,Splitter,HEATING DEMAND SPLITTER,HW DEMAND ENTRANCE PIPE OUTLET NODE,SPACE1-1 ZONE COIL WATER IN NODE,HOT WATER LOOP,Demand
     Plant Loop Connector Branches,2,Splitter,HEATING DEMAND SPLITTER,HEATING DEMAND INLET BRANCH,SPACE2-1 REHEAT BRANCH,HOT WATER LOOP,Demand
     Plant Loop Connector Nodes,   2,Splitter,HEATING DEMAND SPLITTER,HW DEMAND ENTRANCE PIPE OUTLET NODE,SPACE2-1 ZONE COIL WATER IN NODE,HOT WATER LOOP,Demand
     Plant Loop Connector Branches,3,Splitter,HEATING DEMAND SPLITTER,HEATING DEMAND INLET BRANCH,SPACE3-1 REHEAT BRANCH,HOT WATER LOOP,Demand
     Plant Loop Connector Nodes,   3,Splitter,HEATING DEMAND SPLITTER,HW DEMAND ENTRANCE PIPE OUTLET NODE,SPACE3-1 ZONE COIL WATER IN NODE,HOT WATER LOOP,Demand
     Plant Loop Connector Branches,4,Splitter,HEATING DEMAND SPLITTER,HEATING DEMAND INLET BRANCH,SPACE4-1 REHEAT BRANCH,HOT WATER LOOP,Demand
     Plant Loop Connector Nodes,   4,Splitter,HEATING DEMAND SPLITTER,HW DEMAND ENTRANCE PIPE OUTLET NODE,SPACE4-1 ZONE COIL WATER IN NODE,HOT WATER LOOP,Demand
     Plant Loop Connector Branches,5,Splitter,HEATING DEMAND SPLITTER,HEATING DEMAND INLET BRANCH,SPACE5-1 REHEAT BRANCH,HOT WATER LOOP,Demand
     Plant Loop Connector Nodes,   5,Splitter,HEATING DEMAND SPLITTER,HW DEMAND ENTRANCE PIPE OUTLET NODE,SPACE5-1 ZONE COIL WATER IN NODE,HOT WATER LOOP,Demand
     Plant Loop Connector Branches,6,Splitter,HEATING DEMAND SPLITTER,HEATING DEMAND INLET BRANCH,MAIN HEATING COIL 1 BRANCH,HOT WATER LOOP,Demand
     Plant Loop Connector Nodes,   6,Splitter,HEATING DEMAND SPLITTER,HW DEMAND ENTRANCE PIPE OUTLET NODE,MAIN HEATING COIL 1 WATER INLET NODE,HOT WATER LOOP,Demand
     Plant Loop Connector Branches,7,Splitter,HEATING DEMAND SPLITTER,HEATING DEMAND INLET BRANCH,HEATING DEMAND BYPASS BRANCH,HOT WATER LOOP,Demand
     Plant Loop Connector Nodes,   7,Splitter,HEATING DEMAND SPLITTER,HW DEMAND ENTRANCE PIPE OUTLET NODE,HEATING DEMAND BYPASS INLET NODE,HOT WATER LOOP,Demand
   Plant Loop Connector,Mixer,HEATING DEMAND MIXER,HOT WATER LOOP,Demand,7
     Plant Loop Connector Branches,1,Mixer,HEATING DEMAND MIXER,SPACE1-1 REHEAT BRANCH,HEATING DEMAND OUTLET BRANCH,HOT WATER LOOP,Demand
     Plant Loop Connector Nodes,   1,Mixer,HEATING DEMAND MIXER,SPACE1-1 ZONE COIL WATER OUT NODE,HW DEMAND EXIT PIPE INLET NODE,HOT WATER LOOP,Demand
     Plant Loop Connector Branches,2,Mixer,HEATING DEMAND MIXER,SPACE2-1 REHEAT BRANCH,HEATING DEMAND OUTLET BRANCH,HOT WATER LOOP,Demand
     Plant Loop Connector Nodes,   2,Mixer,HEATING DEMAND MIXER,SPACE2-1 ZONE COIL WATER OUT NODE,HW DEMAND EXIT PIPE INLET NODE,HOT WATER LOOP,Demand
     Plant Loop Connector Branches,3,Mixer,HEATING DEMAND MIXER,SPACE3-1 REHEAT BRANCH,HEATING DEMAND OUTLET BRANCH,HOT WATER LOOP,Demand
     Plant Loop Connector Nodes,   3,Mixer,HEATING DEMAND MIXER,SPACE3-1 ZONE COIL WATER OUT NODE,HW DEMAND EXIT PIPE INLET NODE,HOT WATER LOOP,Demand
     Plant Loop Connector Branches,4,Mixer,HEATING DEMAND MIXER,SPACE4-1 REHEAT BRANCH,HEATING DEMAND OUTLET BRANCH,HOT WATER LOOP,Demand
     Plant Loop Connector Nodes,   4,Mixer,HEATING DEMAND MIXER,SPACE4-1 ZONE COIL WATER OUT NODE,HW DEMAND EXIT PIPE INLET NODE,HOT WATER LOOP,Demand
     Plant Loop Connector Branches,5,Mixer,HEATING DEMAND MIXER,SPACE5-1 REHEAT BRANCH,HEATING DEMAND OUTLET BRANCH,HOT WATER LOOP,Demand
     Plant Loop Connector Nodes,   5,Mixer,HEATING DEMAND MIXER,SPACE5-1 ZONE COIL WATER OUT NODE,HW DEMAND EXIT PIPE INLET NODE,HOT WATER LOOP,Demand
     Plant Loop Connector Branches,6,Mixer,HEATING DEMAND MIXER,MAIN HEATING COIL 1 BRANCH,HEATING DEMAND OUTLET BRANCH,HOT WATER LOOP,Demand
     Plant Loop Connector Nodes,   6,Mixer,HEATING DEMAND MIXER,MAIN HEATING COIL 1 WATER OUTLET NODE,HW DEMAND EXIT PIPE INLET NODE,HOT WATER LOOP,Demand
     Plant Loop Connector Branches,7,Mixer,HEATING DEMAND MIXER,HEATING DEMAND BYPASS BRANCH,HEATING DEMAND OUTLET BRANCH,HOT WATER LOOP,Demand
     Plant Loop Connector Nodes,   7,Mixer,HEATING DEMAND MIXER,HEATING DEMAND BYPASS OUTLET NODE,HW DEMAND EXIT PIPE INLET NODE,HOT WATER LOOP,Demand
 Plant Loop,HOT WATER LOOP,Supply,HW SUPPLY INLET NODE,HW SUPPLY OUTLET NODE,HEATING SUPPLY SIDE BRANCHES,HEATING SUPPLY SIDE CONNECTORS
   Plant Loop Connector,Splitter,HEATING SUPPLY SPLITTER,HOT WATER LOOP,Supply,2
     Plant Loop Connector Branches,1,Splitter,HEATING SUPPLY SPLITTER,HEATING SUPPLY INLET BRANCH,CENTRAL BOILER BRANCH,HOT WATER LOOP,Supply
     Plant Loop Connector Nodes,   1,Splitter,HEATING SUPPLY SPLITTER,HW PUMP OUTLET NODE,CENTRAL BOILER INLET NODE,HOT WATER LOOP,Supply
     Plant Loop Connector Branches,2,Splitter,HEATING SUPPLY SPLITTER,HEATING SUPPLY INLET BRANCH,HEATING SUPPLY BYPASS BRANCH,HOT WATER LOOP,Supply
     Plant Loop Connector Nodes,   2,Splitter,HEATING SUPPLY SPLITTER,HW PUMP OUTLET NODE,HEATING SUPPLY BYPASS INLET NODE,HOT WATER LOOP,Supply
   Plant Loop Connector,Mixer,HEATING SUPPLY MIXER,HOT WATER LOOP,Supply,2
     Plant Loop Connector Branches,1,Mixer,HEATING SUPPLY MIXER,CENTRAL BOILER BRANCH,HEATING SUPPLY OUTLET BRANCH,HOT WATER LOOP,Supply
     Plant Loop Connector Nodes,   1,Mixer,HEATING SUPPLY MIXER,CENTRAL BOILER OUTLET NODE,HEATING SUPPLY EXIT PIPE INLET NODE,HOT WATER LOOP,Supply
     Plant Loop Connector Branches,2,Mixer,HEATING SUPPLY MIXER,HEATING SUPPLY BYPASS BRANCH,HEATING SUPPLY OUTLET BRANCH,HOT WATER LOOP,Supply
     Plant Loop Connector Nodes,   2,Mixer,HEATING SUPPLY MIXER,HEATING SUPPLY BYPASS OUTLET NODE,HEATING SUPPLY EXIT PIPE INLET NODE,HOT WATER LOOP,Supply
 Plant Loop Supply Connection,HOT WATER LOOP,HW SUPPLY OUTLET NODE,HW DEMAND INLET NODE
 Plant Loop Return Connection,HOT WATER LOOP,HW DEMAND OUTLET NODE,HW SUPPLY INLET NODE
 Plant Loop,CHILLED WATER LOOP,Demand,CW DEMAND INLET NODE,CW DEMAND OUTLET NODE,COOLING DEMAND SIDE BRANCHES,COOLING DEMAND SIDE CONNECTORS
   Plant Loop Connector,Splitter,CW DEMAND SPLITTER,CHILLED WATER LOOP,Demand,2
     Plant Loop Connector Branches,1,Splitter,CW DEMAND SPLITTER,COOLING DEMAND INLET,COOLING COIL BRANCH,CHILLED WATER LOOP,Demand
     Plant Loop Connector Nodes,   1,Splitter,CW DEMAND SPLITTER,CW DEMAND ENTRANCE PIPE OUTLET NODE,MAIN COOLING COIL 1 WATER INLET NODE,CHILLED WATER LOOP,Demand
     Plant Loop Connector Branches,2,Splitter,CW DEMAND SPLITTER,COOLING DEMAND INLET,COOLING DEMAND BYPASS BRANCH,CHILLED WATER LOOP,Demand
     Plant Loop Connector Nodes,   2,Splitter,CW DEMAND SPLITTER,CW DEMAND ENTRANCE PIPE OUTLET NODE,CW DEMAND BYPASS INLET NODE,CHILLED WATER LOOP,Demand
   Plant Loop Connector,Mixer,CW DEMAND MIXER,CHILLED WATER LOOP,Demand,2
     Plant Loop Connector Branches,1,Mixer,CW DEMAND MIXER,COOLING COIL BRANCH,COOLING DEMAND OUTLET,CHILLED WATER LOOP,Demand
     Plant Loop Connector Nodes,   1,Mixer,CW DEMAND MIXER,MAIN COOLING COIL 1 WATER OUTLET NODE,CW DEMAND EXIT PIPE INLET NODE,CHILLED WATER LOOP,Demand
     Plant Loop Connector Branches,2,Mixer,CW DEMAND MIXER,COOLING DEMAND BYPASS BRANCH,COOLING DEMAND OUTLET,CHILLED WATER LOOP,Demand
     Plant Loop Connector Nodes,   2,Mixer,CW DEMAND MIXER,CW DEMAND BYPASS OUTLET NODE,CW DEMAND EXIT PIPE INLET NODE,CHILLED WATER LOOP,Demand
 Plant Loop,CHILLED WATER LOOP,Supply,CW SUPPLY INLET NODE,CW SUPPLY OUTLET NODE,COOLING SUPPLY SIDE BRANCHES,COOLING SUPPLY SIDE CONNECTORS
   Plant Loop Connector,Splitter,CW LOOP SPLITTER,CHILLED WATER LOOP,Supply,2
     Plant Loop Connector Branches,1,Splitter,CW LOOP SPLITTER,CW PUMP BRANCH,CENTRAL CHILLER BRANCH,CHILLED WATER LOOP,Supply
     Plant Loop Connector Nodes,   1,Splitter,CW LOOP SPLITTER,CW PUMP OUTLET NODE,CENTRAL CHILLER INLET NODE,CHILLED WATER LOOP,Supply
     Plant Loop Connector Branches,2,Splitter,CW LOOP SPLITTER,CW PUMP BRANCH,COOLING SUPPLY BYPASS BRANCH,CHILLED WATER LOOP,Supply
     Plant Loop Connector Nodes,   2,Splitter,CW LOOP SPLITTER,CW PUMP OUTLET NODE,CW SUPPLY BYPASS INLET NODE,CHILLED WATER LOOP,Supply
   Plant Loop Connector,Mixer,CW LOOP MIXER,CHILLED WATER LOOP,Supply,2
     Plant Loop Connector Branches,1,Mixer,CW LOOP MIXER,CENTRAL CHILLER BRANCH,COOLING SUPPLY OUTLET,CHILLED WATER LOOP,Supply
     Plant Loop Connector Nodes,   1,Mixer,CW LOOP MIXER,CENTRAL CHILLER OUTLET NODE,SUPPLY SIDE EXIT PIPE INLET NODE,CHILLED WATER LOOP,Supply
     Plant Loop Connector Branches,2,Mixer,CW LOOP MIXER,COOLING SUPPLY BYPASS BRANCH,COOLING SUPPLY OUTLET,CHILLED WATER LOOP,Supply
     Plant Loop Connector Nodes,   2,Mixer,CW LOOP MIXER,CW SUPPLY BYPASS OUTLET NODE,SUPPLY SIDE EXIT PIPE INLET NODE,CHILLED WATER LOOP,Supply
 Plant Loop Supply Connection,CHILLED WATER LOOP,CW SUPPLY OUTLET NODE,CW DEMAND INLET NODE
 Plant Loop Return Connection,CHILLED WATER LOOP,CW DEMAND OUTLET NODE,CW SUPPLY INLET NODE
! ===============================================================
! <# Condenser Loops>,<Number of Condenser Loops>
 #Condenser Loops,0
! <Condenser Loop>,<Condenser Loop Name>,<Loop Type>,<Inlet Node Name>,<Outlet Node Name>,<Branch List>,<Connector List>
! <Condenser Loop Connector>,<Connector Type>,<Connector Name>,<Loop Name>,<Loop Type>,<Number of Inlets/Outlets>
! <Condenser Loop Connector Branches>,<Connector Node Count>,<Connector Type>,<Connector Name>,<Inlet Branch>,<Outlet Branch>,<Loop Name>,<Loop Type>
! <Condenser Loop Connector Nodes>,<Connector Node Count>,<Connector Type>,<Connector Name>,<Inlet Node>,<Outlet Node>,<Loop Name>,<Loop Type>
! <Condenser Loop Supply Connection>,<Condenser Loop Name>,<Supply Side Outlet Node Name>,<Demand Side Inlet Node Name>
! <Condenser Loop Return Connection>,<Condenser Loop Name>,<Demand Side Outlet Node Name>,<Supply Side Inlet Node Name>
! ===============================================================
! <# Controlled Zones>,<Number of Controlled Zones>
 #Controlled Zones,5
! <Controlled Zone>,<Controlled Zone Name>,<Equip List Name>,<Control List Name>,<Zone Node Name>,<# Inlet Nodes>,<# Exhaust Nodes>,<# Return Nodes>
! <Controlled Zone Inlet>,<Inlet Node Count>,<Controlled Zone Name>,<Supply Air Inlet Node Name>,<SD Sys:Cooling/Heating [DD:Cooling] Inlet Node Name>,<DD Sys:Heating Inlet Node Name>
! <Controlled Zone Exhaust>,<Exhaust Node Count>,<Controlled Zone Name>,<Exhaust Air Node Name>
 Controlled Zone,SPACE1-1,SPACE1-1 EQ,,SPACE1-1 NODE,1,0,1
   Controlled Zone Inlet,1,SPACE1-1,SPACE1-1 IN NODE,SPACE1-1 ATU IN NODE,N/A
   Controlled Zone Return,1,SPACE1-1,SPACE1-1 OUT NODE
 Controlled Zone,SPACE2-1,SPACE2-1 EQ,,SPACE2-1 NODE,1,1,1
   Controlled Zone Inlet,1,SPACE2-1,SPACE2-1 IN NODE,SPACE2-1 ATU IN NODE,N/A
   Controlled Zone Exhaust,1,SPACE2-1,SPACE2-1 ATU SEC NODE
   Controlled Zone Return,1,SPACE2-1,SPACE2-1 OUT NODE
 Controlled Zone,SPACE3-1,SPACE3-1 EQ,,SPACE3-1 NODE,1,1,1
   Controlled Zone Inlet,1,SPACE3-1,SPACE3-1 IN NODE,SPACE3-1 ATU IN NODE,N/A
   Controlled Zone Exhaust,1,SPACE3-1,SPACE3-1 ATU SEC NODE
   Controlled Zone Return,1,SPACE3-1,SPACE3-1 OUT NODE
 Controlled Zone,SPACE4-1,SPACE4-1 EQ,,SPACE4-1 NODE,1,0,1
   Controlled Zone Inlet,1,SPACE4-1,SPACE4-1 IN NODE,SPACE4-1 ATU IN NODE,N/A
   Controlled Zone Return,1,SPACE4-1,SPACE4-1 OUT NODE
 Controlled Zone,SPACE5-1,SPACE5-1 EQ,,SPACE5-1 NODE,1,0,1
   Controlled Zone Inlet,1,SPACE5-1,SPACE5-1 IN NODE,SPACE5-1 ATU IN NODE,N/A
   Controlled Zone Return,1,SPACE5-1,SPACE5-1 OUT NODE
! ===============================================================
! <#Zone Equipment Lists>,<Number of Zone Equipment Lists>
 #Zone Equipment Lists,5
! <Zone Equipment List>,<Zone Equipment List Count>,<Zone Equipment List Name>,<Zone Name>,<Number of Components>
! <Zone Equipment Component>,<Component Count>,<Component Type>,<Component Name>,<Zone Name>,<Heating Priority>,<Cooling Priority>
 Zone Equipment List,2,SPACE1-1 EQ,SPACE1-1,1
   Zone Equipment Component,1,ZONEHVAC:AIRDISTRIBUTIONUNIT,SPACE1-1 ATU,SPACE1-1,1,1
 Zone Equipment List,3,SPACE2-1 EQ,SPACE2-1,1
   Zone Equipment Component,1,ZONEHVAC:AIRDISTRIBUTIONUNIT,SPACE2-1 ATU,SPACE2-1,1,1
 Zone Equipment List,4,SPACE3-1 EQ,SPACE3-1,1
   Zone Equipment Component,1,ZONEHVAC:AIRDISTRIBUTIONUNIT,SPACE3-1 ATU,SPACE3-1,1,1
 Zone Equipment List,5,SPACE4-1 EQ,SPACE4-1,1
   Zone Equipment Component,1,ZONEHVAC:AIRDISTRIBUTIONUNIT,SPACE4-1 ATU,SPACE4-1,1,1
 Zone Equipment List,6,SPACE5-1 EQ,SPACE5-1,1
   Zone Equipment Component,1,ZONEHVAC:AIRDISTRIBUTIONUNIT,SPACE5-1 ATU,SPACE5-1,1,1
! ===============================================================
! <#AirLoopHVACs>,<Number of AirLoopHVACs>
 #AirLoopHVACs,1
! <AirLoopHVAC>,<Air Loop Name>,<# Return Nodes>,<# Supply Nodes>,<# Zones Cooled>,<# Zones Heated>,<Outdoor Air Used>
! <AirLoop Return Connections>,<Connection Count>,<AirLoopHVAC Name>,<Zn Eqp Return Node #>,<Zn Eqp Return Node Name>,<AirLoop Return Node #>,<Air Loop Return Node Name>
! <AirLoop Supply Connections>,<Connection Count>,<AirLoopHVAC Name>,<Zn Eqp Supply Node #>,<Zn Eqp Supply Node Name>,<AirLoop Supply Node #>,<Air Loop Supply Node Name>
! <Cooled Zone Info>,<Cooled Zone Count>,<Cooled Zone Name>,<Cooled Zone Inlet Node #>,<Cooled Zone Inlet Node Name>,<AirLoopHVAC Name>
! <Heated Zone Info>,<Heated Zone Count>,<Heated Zone Name>,<Heated Zone Inlet Node #>,<Heated Zone Inlet Node Name>,<AirLoopHVAC Name>
! <Outdoor Air Connections>,<OA Inlet Node #>,<OA Return Air Inlet Node Name>,<OA Outlet Node #>,<OA Mixed Air Outlet Node Name>,<AirLoopHVAC Name>
! <AirLoopHVAC Connector>,<Connector Type>,<Connector Name>,<Loop Name>,<Loop Type>,<Number of Inlets/Outlets>
! <AirLoopHVAC Connector Branches>,<Connector Node Count>,<Connector Type>,<Connector Name>,<Inlet Branch>,<Outlet Branch>,<Loop Name>,<Loop Type>
! <AirLoopHVAC Connector Nodes>,<Connector Node Count>,<Connector Type>,<Connector Name>,<Inlet Node>,<Outlet Node>,<Loop Name>,<Loop Type>
 AirLoopHVAC,VAV SYS 1,1,1,5,0,Yes
   AirLoop Return Connections,1,VAV SYS 1,69,PLENUM-1 OUT NODE,9,VAV SYS 1 INLET NODE
   AirLoop Supply Connections,1,VAV SYS 1,68,ZONE EQ IN NODE,10,VAV SYS 1 OUTLET NODE
   Cooled Zone Info,1,SPACE1-1,54,SPACE1-1 IN NODE,VAV SYS 1
   Cooled Zone Info,2,SPACE2-1,57,SPACE2-1 IN NODE,VAV SYS 1
   Cooled Zone Info,3,SPACE3-1,60,SPACE3-1 IN NODE,VAV SYS 1
   Cooled Zone Info,4,SPACE4-1,63,SPACE4-1 IN NODE,VAV SYS 1
   Cooled Zone Info,5,SPACE5-1,66,SPACE5-1 IN NODE,VAV SYS 1
   Outdoor Air Connections,9,VAV SYS 1 INLET NODE,6,MIXED AIR NODE 1,VAV SYS 1
! ===============================================================
! <#Parent Node Connections>,<Number of Parent Node Connections>
 #Parent Node Connections,86
! <Parent Node Connection>,<Node Name>,<Node ObjectType>,<Node ObjectName>,<Node ConnectionType>,<Node FluidStream>
 Parent Node Connection,VAV SYS 1 INLET NODE,BRANCH,VAV SYS 1 MAIN BRANCH,Inlet,1
 Parent Node Connection,MIXED AIR NODE 1,BRANCH,VAV SYS 1 MAIN BRANCH,Internal,1
 Parent Node Connection,MAIN COOLING COIL 1 OUTLET NODE,BRANCH,VAV SYS 1 MAIN BRANCH,Internal,1
 Parent Node Connection,MAIN HEATING COIL 1 OUTLET NODE,BRANCH,VAV SYS 1 MAIN BRANCH,Internal,1
 Parent Node Connection,VAV SYS 1 OUTLET NODE,BRANCH,VAV SYS 1 MAIN BRANCH,Outlet,1
 Parent Node Connection,HW SUPPLY INLET NODE,BRANCH,HEATING SUPPLY INLET BRANCH,Inlet,1
 Parent Node Connection,HW PUMP OUTLET NODE,BRANCH,HEATING SUPPLY INLET BRANCH,Outlet,1
 Parent Node Connection,CENTRAL BOILER INLET NODE,BRANCH,CENTRAL BOILER BRANCH,Inlet,1
 Parent Node Connection,CENTRAL BOILER OUTLET NODE,BRANCH,CENTRAL BOILER BRANCH,Outlet,1
 Parent Node Connection,HEATING SUPPLY BYPASS INLET NODE,BRANCH,HEATING SUPPLY BYPASS BRANCH,Inlet,1
 Parent Node Connection,HEATING SUPPLY BYPASS OUTLET NODE,BRANCH,HEATING SUPPLY BYPASS BRANCH,Outlet,1
 Parent Node Connection,HEATING SUPPLY EXIT PIPE INLET NODE,BRANCH,HEATING SUPPLY OUTLET BRANCH,Inlet,1
 Parent Node Connection,HW SUPPLY OUTLET NODE,BRANCH,HEATING SUPPLY OUTLET BRANCH,Outlet,1
 Parent Node Connection,HW DEMAND INLET NODE,BRANCH,HEATING DEMAND INLET BRANCH,Inlet,1
 Parent Node Connection,HW DEMAND ENTRANCE PIPE OUTLET NODE,BRANCH,HEATING DEMAND INLET BRANCH,Outlet,1
 Parent Node Connection,HW DEMAND EXIT PIPE INLET NODE,BRANCH,HEATING DEMAND OUTLET BRANCH,Inlet,1
 Parent Node Connection,HW DEMAND OUTLET NODE,BRANCH,HEATING DEMAND OUTLET BRANCH,Outlet,1
 Parent Node Connection,SPACE1-1 ZONE COIL WATER IN NODE,BRANCH,SPACE1-1 REHEAT BRANCH,Inlet,1
 Parent Node Connection,SPACE1-1 ZONE COIL WATER OUT NODE,BRANCH,SPACE1-1 REHEAT BRANCH,Outlet,1
 Parent Node Connection,SPACE2-1 ZONE COIL WATER IN NODE,BRANCH,SPACE2-1 REHEAT BRANCH,Inlet,1
 Parent Node Connection,SPACE2-1 ZONE COIL WATER OUT NODE,BRANCH,SPACE2-1 REHEAT BRANCH,Outlet,1
 Parent Node Connection,SPACE3-1 ZONE COIL WATER IN NODE,BRANCH,SPACE3-1 REHEAT BRANCH,Inlet,1
 Parent Node Connection,SPACE3-1 ZONE COIL WATER OUT NODE,BRANCH,SPACE3-1 REHEAT BRANCH,Outlet,1
 Parent Node Connection,SPACE4-1 ZONE COIL WATER IN NODE,BRANCH,SPACE4-1 REHEAT BRANCH,Inlet,1
 Parent Node Connection,SPACE4-1 ZONE COIL WATER OUT NODE,BRANCH,SPACE4-1 REHEAT BRANCH,Outlet,1
 Parent Node Connection,SPACE5-1 ZONE COIL WATER IN NODE,BRANCH,SPACE5-1 REHEAT BRANCH,Inlet,1
 Parent Node Connection,SPACE5-1 ZONE COIL WATER OUT NODE,BRANCH,SPACE5-1 REHEAT BRANCH,Outlet,1
 Parent Node Connection,MAIN HEATING COIL 1 WATER INLET NODE,BRANCH,MAIN HEATING COIL 1 BRANCH,Inlet,1
 Parent Node Connection,MAIN HEATING COIL 1 WATER OUTLET NODE,BRANCH,MAIN HEATING COIL 1 BRANCH,Outlet,1
 Parent Node Connection,HEATING DEMAND BYPASS INLET NODE,BRANCH,HEATING DEMAND BYPASS BRANCH,Inlet,1
 Parent Node Connection,HEATING DEMAND BYPASS OUTLET NODE,BRANCH,HEATING DEMAND BYPASS BRANCH,Outlet,1
 Parent Node Connection,CW DEMAND INLET NODE,BRANCH,COOLING DEMAND INLET,Inlet,1
 Parent Node Connection,CW DEMAND ENTRANCE PIPE OUTLET NODE,BRANCH,COOLING DEMAND INLET,Outlet,1
 Parent Node Connection,MAIN COOLING COIL 1 WATER INLET NODE,BRANCH,COOLING COIL BRANCH,Inlet,1
 Parent Node Connection,MAIN COOLING COIL 1 WATER OUTLET NODE,BRANCH,COOLING COIL BRANCH,Outlet,1
 Parent Node Connection,CW DEMAND BYPASS INLET NODE,BRANCH,COOLING DEMAND BYPASS BRANCH,Inlet,1
 Parent Node Connection,CW DEMAND BYPASS OUTLET NODE,BRANCH,COOLING DEMAND BYPASS BRANCH,Outlet,1
 Parent Node Connection,CW DEMAND EXIT PIPE INLET NODE,BRANCH,COOLING DEMAND OUTLET,Inlet,1
 Parent Node Connection,CW DEMAND OUTLET NODE,BRANCH,COOLING DEMAND OUTLET,Outlet,1
 Parent Node Connection,SUPPLY SIDE EXIT PIPE INLET NODE,BRANCH,COOLING SUPPLY OUTLET,Inlet,1
 Parent Node Connection,CW SUPPLY OUTLET NODE,BRANCH,COOLING SUPPLY OUTLET,Outlet,1
 Parent Node Connection,CW SUPPLY INLET NODE,BRANCH,CW PUMP BRANCH,Inlet,1
 Parent Node Connection,CW PUMP OUTLET NODE,BRANCH,CW PUMP BRANCH,Outlet,1
 Parent Node Connection,CENTRAL CHILLER INLET NODE,BRANCH,CENTRAL CHILLER BRANCH,Inlet,1
 Parent Node Connection,CENTRAL CHILLER OUTLET NODE,BRANCH,CENTRAL CHILLER BRANCH,Outlet,1
 Parent Node Connection,CW SUPPLY BYPASS INLET NODE,BRANCH,COOLING SUPPLY BYPASS BRANCH,Inlet,1
 Parent Node Connection,CW SUPPLY BYPASS OUTLET NODE,BRANCH,COOLING SUPPLY BYPASS BRANCH,Outlet,1
 Parent Node Connection,ZONE EQ IN NODE,AIRLOOPHVAC:SUPPLYPATH,ZONE SUPPLY AIR PATH 1,Inlet,1
 Parent Node Connection,PLENUM-1 OUT NODE,AIRLOOPHVAC:RETURNPATH,RETURNAIRPATH1,Outlet,1
 Parent Node Connection,HW SUPPLY INLET NODE,PLANTLOOP,HOT WATER LOOP,Inlet,1
 Parent Node Connection,HW SUPPLY OUTLET NODE,PLANTLOOP,HOT WATER LOOP,Outlet,1
 Parent Node Connection,HW DEMAND INLET NODE,PLANTLOOP,HOT WATER LOOP,Inlet,1
 Parent Node Connection,HW DEMAND OUTLET NODE,PLANTLOOP,HOT WATER LOOP,Outlet,1
 Parent Node Connection,HW SUPPLY OUTLET NODE,PLANTLOOP,HOT WATER LOOP,Sensor,1
 Parent Node Connection,CW SUPPLY INLET NODE,PLANTLOOP,CHILLED WATER LOOP,Inlet,1
 Parent Node Connection,CW SUPPLY OUTLET NODE,PLANTLOOP,CHILLED WATER LOOP,Outlet,1
 Parent Node Connection,CW DEMAND INLET NODE,PLANTLOOP,CHILLED WATER LOOP,Inlet,1
 Parent Node Connection,CW DEMAND OUTLET NODE,PLANTLOOP,CHILLED WATER LOOP,Outlet,1
 Parent Node Connection,CW SUPPLY OUTLET NODE,PLANTLOOP,CHILLED WATER LOOP,Sensor,1
 Parent Node Connection,SPACE1-1 IN NODE,ZONEHVAC:AIRDISTRIBUTIONUNIT,SPACE1-1 ATU,Outlet,1
 Parent Node Connection,SPACE2-1 IN NODE,ZONEHVAC:AIRDISTRIBUTIONUNIT,SPACE2-1 ATU,Outlet,1
 Parent Node Connection,SPACE3-1 IN NODE,ZONEHVAC:AIRDISTRIBUTIONUNIT,SPACE3-1 ATU,Outlet,1
 Parent Node Connection,SPACE4-1 IN NODE,ZONEHVAC:AIRDISTRIBUTIONUNIT,SPACE4-1 ATU,Outlet,1
 Parent Node Connection,SPACE5-1 IN NODE,ZONEHVAC:AIRDISTRIBUTIONUNIT,SPACE5-1 ATU,Outlet,1
 Parent Node Connection,SPACE1-1 ATU IN NODE,AIRTERMINAL:SINGLEDUCT:SERIESPIU:REHEAT,SPACE1-1 VAV REHEAT,Inlet,1
 Parent Node Connection,SPACE1-1 ATU SEC NODE,AIRTERMINAL:SINGLEDUCT:SERIESPIU:REHEAT,SPACE1-1 VAV REHEAT,Inlet,1
 Parent Node Connection,SPACE1-1 IN NODE,AIRTERMINAL:SINGLEDUCT:SERIESPIU:REHEAT,SPACE1-1 VAV REHEAT,Outlet,1
 Parent Node Connection,SPACE1-1 ZONE COIL AIR IN NODE,AIRTERMINAL:SINGLEDUCT:SERIESPIU:REHEAT,SPACE1-1 VAV REHEAT,Internal,1
 Parent Node Connection,SPACE3-1 ATU IN NODE,AIRTERMINAL:SINGLEDUCT:SERIESPIU:REHEAT,SPACE3-1 VAV REHEAT,Inlet,1
 Parent Node Connection,SPACE3-1 ATU SEC NODE,AIRTERMINAL:SINGLEDUCT:SERIESPIU:REHEAT,SPACE3-1 VAV REHEAT,Inlet,1
 Parent Node Connection,SPACE3-1 IN NODE,AIRTERMINAL:SINGLEDUCT:SERIESPIU:REHEAT,SPACE3-1 VAV REHEAT,Outlet,1
 Parent Node Connection,SPACE3-1 ZONE COIL AIR IN NODE,AIRTERMINAL:SINGLEDUCT:SERIESPIU:REHEAT,SPACE3-1 VAV REHEAT,Internal,1
 Parent Node Connection,SPACE2-1 ATU IN NODE,AIRTERMINAL:SINGLEDUCT:PARALLELPIU:REHEAT,SPACE2-1 VAV REHEAT,Inlet,1
 Parent Node Connection,SPACE2-1 ATU SEC NODE,AIRTERMINAL:SINGLEDUCT:PARALLELPIU:REHEAT,SPACE2-1 VAV REHEAT,Inlet,1
 Parent Node Connection,SPACE2-1 IN NODE,AIRTERMINAL:SINGLEDUCT:PARALLELPIU:REHEAT,SPACE2-1 VAV REHEAT,Outlet,1
 Parent Node Connection,SPACE2-1 ZONE COIL AIR IN NODE,AIRTERMINAL:SINGLEDUCT:PARALLELPIU:REHEAT,SPACE2-1 VAV REHEAT,Internal,1
 Parent Node Connection,SPACE4-1 ATU IN NODE,AIRTERMINAL:SINGLEDUCT:PARALLELPIU:REHEAT,SPACE4-1 VAV REHEAT,Inlet,1
 Parent Node Connection,SPACE4-1 ATU SEC NODE,AIRTERMINAL:SINGLEDUCT:PARALLELPIU:REHEAT,SPACE4-1 VAV REHEAT,Inlet,1
 Parent Node Connection,SPACE4-1 IN NODE,AIRTERMINAL:SINGLEDUCT:PARALLELPIU:REHEAT,SPACE4-1 VAV REHEAT,Outlet,1
 Parent Node Connection,SPACE4-1 ZONE COIL AIR IN NODE,AIRTERMINAL:SINGLEDUCT:PARALLELPIU:REHEAT,SPACE4-1 VAV REHEAT,Internal,1
 Parent Node Connection,SPACE5-1 IN NODE,AIRTERMINAL:SINGLEDUCT:CONSTANTVOLUME:REHEAT,SPACE5-1 CV REHEAT,Outlet,1
 Parent Node Connection,SPACE5-1 ATU IN NODE,AIRTERMINAL:SINGLEDUCT:CONSTANTVOLUME:REHEAT,SPACE5-1 CV REHEAT,Inlet,1
 Parent Node Connection,VAV SYS 1 INLET NODE,AIRLOOPHVAC,VAV SYS 1,Inlet,1
 Parent Node Connection,PLENUM-1 OUT NODE,AIRLOOPHVAC,VAV SYS 1,Outlet,1
 Parent Node Connection,ZONE EQ IN NODE,AIRLOOPHVAC,VAV SYS 1,Inlet,1
 Parent Node Connection,VAV SYS 1 OUTLET NODE,AIRLOOPHVAC,VAV SYS 1,Outlet,1
! ===============================================================
! <#Non-Parent Node Connections>,<Number of Non-Parent Node Connections>
 #Non-Parent Node Connections,172
! <Non-Parent Node Connection>,<Node Name>,<Node ObjectType>,<Node ObjectName>,<Node ConnectionType>,<Node FluidStream>
 Non-Parent Node Connection,SPACE1-1 NODE,ZONEHVAC:EQUIPMENTCONNECTIONS,SPACE1-1,ZoneNode,1
 Non-Parent Node Connection,SPACE1-1 IN NODE,ZONEHVAC:EQUIPMENTCONNECTIONS,SPACE1-1,ZoneInlet,1
 Non-Parent Node Connection,SPACE1-1 OUT NODE,ZONEHVAC:EQUIPMENTCONNECTIONS,SPACE1-1,ZoneReturn,1
 Non-Parent Node Connection,SPACE2-1 NODE,ZONEHVAC:EQUIPMENTCONNECTIONS,SPACE2-1,ZoneNode,1
 Non-Parent Node Connection,SPACE2-1 IN NODE,ZONEHVAC:EQUIPMENTCONNECTIONS,SPACE2-1,ZoneInlet,1
 Non-Parent Node Connection,SPACE2-1 ATU SEC NODE,ZONEHVAC:EQUIPMENTCONNECTIONS,SPACE2-1,ZoneExhaust,1
 Non-Parent Node Connection,SPACE2-1 OUT NODE,ZONEHVAC:EQUIPMENTCONNECTIONS,SPACE2-1,ZoneReturn,1
 Non-Parent Node Connection,SPACE3-1 NODE,ZONEHVAC:EQUIPMENTCONNECTIONS,SPACE3-1,ZoneNode,1
 Non-Parent Node Connection,SPACE3-1 IN NODE,ZONEHVAC:EQUIPMENTCONNECTIONS,SPACE3-1,ZoneInlet,1
 Non-Parent Node Connection,SPACE3-1 ATU SEC NODE,ZONEHVAC:EQUIPMENTCONNECTIONS,SPACE3-1,ZoneExhaust,1
 Non-Parent Node Connection,SPACE3-1 OUT NODE,ZONEHVAC:EQUIPMENTCONNECTIONS,SPACE3-1,ZoneReturn,1
 Non-Parent Node Connection,SPACE4-1 NODE,ZONEHVAC:EQUIPMENTCONNECTIONS,SPACE4-1,ZoneNode,1
 Non-Parent Node Connection,SPACE4-1 IN NODE,ZONEHVAC:EQUIPMENTCONNECTIONS,SPACE4-1,ZoneInlet,1
 Non-Parent Node Connection,SPACE4-1 OUT NODE,ZONEHVAC:EQUIPMENTCONNECTIONS,SPACE4-1,ZoneReturn,1
 Non-Parent Node Connection,SPACE5-1 NODE,ZONEHVAC:EQUIPMENTCONNECTIONS,SPACE5-1,ZoneNode,1
 Non-Parent Node Connection,SPACE5-1 IN NODE,ZONEHVAC:EQUIPMENTCONNECTIONS,SPACE5-1,ZoneInlet,1
 Non-Parent Node Connection,SPACE5-1 OUT NODE,ZONEHVAC:EQUIPMENTCONNECTIONS,SPACE5-1,ZoneReturn,1
 Non-Parent Node Connection,OUTSIDE AIR INLET NODE 1,OUTDOORAIR:NODELIST,OutdoorAir:NodeList,OutdoorAir,1
 Non-Parent Node Connection,CENTRAL CHILLER CONDENSER INLET NODE,OUTDOORAIR:NODE,OutdoorAir:Node,OutdoorAir,2
 Non-Parent Node Connection,VAV SYS 1 OUTLET NODE,SETPOINTMANAGER:SCHEDULED,SUPPLY AIR TEMP MANAGER 1,Setpoint,1
 Non-Parent Node Connection,HW SUPPLY OUTLET NODE,SETPOINTMANAGER:SCHEDULED,HOT WATER LOOP SETPOINT MANAGER,Setpoint,1
 Non-Parent Node Connection,CENTRAL BOILER OUTLET NODE,SETPOINTMANAGER:SCHEDULED,CENTRAL BOILER SETPOINT MANAGER,Setpoint,1
 Non-Parent Node Connection,CW SUPPLY OUTLET NODE,SETPOINTMANAGER:SCHEDULED,CHILLED WATER LOOP SETPOINT MANAGER,Setpoint,1
 Non-Parent Node Connection,CENTRAL CHILLER OUTLET NODE,SETPOINTMANAGER:SCHEDULED,CENTRAL CHILLER SETPOINT MANAGER,Setpoint,1
 Non-Parent Node Connection,VAV SYS 1 OUTLET NODE,SETPOINTMANAGER:MIXEDAIR,MIXED AIR TEMP MANAGER 1,Sensor,1
 Non-Parent Node Connection,MAIN HEATING COIL 1 OUTLET NODE,SETPOINTMANAGER:MIXEDAIR,MIXED AIR TEMP MANAGER 1,Sensor,1
 Non-Parent Node Connection,MIXED AIR NODE 1,SETPOINTMANAGER:MIXEDAIR,MIXED AIR TEMP MANAGER 1,Setpoint,1
 Non-Parent Node Connection,MAIN COOLING COIL 1 OUTLET NODE,SETPOINTMANAGER:MIXEDAIR,MIXED AIR TEMP MANAGER 1,Setpoint,1
 Non-Parent Node Connection,MAIN HEATING COIL 1 OUTLET NODE,SETPOINTMANAGER:MIXEDAIR,MIXED AIR TEMP MANAGER 1,Setpoint,1
 Non-Parent Node Connection,HEATING SUPPLY BYPASS INLET NODE,PIPE:ADIABATIC,HEATING SUPPLY SIDE BYPASS,Inlet,1
 Non-Parent Node Connection,HEATING SUPPLY BYPASS OUTLET NODE,PIPE:ADIABATIC,HEATING SUPPLY SIDE BYPASS,Outlet,1
 Non-Parent Node Connection,HEATING SUPPLY EXIT PIPE INLET NODE,PIPE:ADIABATIC,HEATING SUPPLY OUTLET,Inlet,1
 Non-Parent Node Connection,HW SUPPLY OUTLET NODE,PIPE:ADIABATIC,HEATING SUPPLY OUTLET,Outlet,1
 Non-Parent Node Connection,HW DEMAND INLET NODE,PIPE:ADIABATIC,HEATING DEMAND INLET PIPE,Inlet,1
 Non-Parent Node Connection,HW DEMAND ENTRANCE PIPE OUTLET NODE,PIPE:ADIABATIC,HEATING DEMAND INLET PIPE,Outlet,1
 Non-Parent Node Connection,HW DEMAND EXIT PIPE INLET NODE,PIPE:ADIABATIC,HEATING DEMAND OUTLET PIPE,Inlet,1
 Non-Parent Node Connection,HW DEMAND OUTLET NODE,PIPE:ADIABATIC,HEATING DEMAND OUTLET PIPE,Outlet,1
 Non-Parent Node Connection,HEATING DEMAND BYPASS INLET NODE,PIPE:ADIABATIC,HEATING DEMAND BYPASS,Inlet,1
 Non-Parent Node Connection,HEATING DEMAND BYPASS OUTLET NODE,PIPE:ADIABATIC,HEATING DEMAND BYPASS,Outlet,1
 Non-Parent Node Connection,CW DEMAND INLET NODE,PIPE:ADIABATIC,COOLING DEMAND SIDE INLET PIPE,Inlet,1
 Non-Parent Node Connection,CW DEMAND ENTRANCE PIPE OUTLET NODE,PIPE:ADIABATIC,COOLING DEMAND SIDE INLET PIPE,Outlet,1
 Non-Parent Node Connection,CW DEMAND BYPASS INLET NODE,PIPE:ADIABATIC,COOLING DEMAND SIDE BYPASS,Inlet,1
 Non-Parent Node Connection,CW DEMAND BYPASS OUTLET NODE,PIPE:ADIABATIC,COOLING DEMAND SIDE BYPASS,Outlet,1
 Non-Parent Node Connection,CW DEMAND EXIT PIPE INLET NODE,PIPE:ADIABATIC,CW DEMAND SIDE OUTLET PIPE,Inlet,1
 Non-Parent Node Connection,CW DEMAND OUTLET NODE,PIPE:ADIABATIC,CW DEMAND SIDE OUTLET PIPE,Outlet,1
 Non-Parent Node Connection,SUPPLY SIDE EXIT PIPE INLET NODE,PIPE:ADIABATIC,SUPPLY SIDE OUTLET PIPE,Inlet,1
 Non-Parent Node Connection,CW SUPPLY OUTLET NODE,PIPE:ADIABATIC,SUPPLY SIDE OUTLET PIPE,Outlet,1
 Non-Parent Node Connection,CW SUPPLY BYPASS INLET NODE,PIPE:ADIABATIC,SUPPLY SIDE BYPASS,Inlet,1
 Non-Parent Node Connection,CW SUPPLY BYPASS OUTLET NODE,PIPE:ADIABATIC,SUPPLY SIDE BYPASS,Outlet,1
 Non-Parent Node Connection,HW DEMAND ENTRANCE PIPE OUTLET NODE,CONNECTOR:SPLITTER,HEATING DEMAND SPLITTER,Inlet,1
 Non-Parent Node Connection,SPACE1-1 ZONE COIL WATER IN NODE,CONNECTOR:SPLITTER,HEATING DEMAND SPLITTER,Outlet,1
 Non-Parent Node Connection,SPACE2-1 ZONE COIL WATER IN NODE,CONNECTOR:SPLITTER,HEATING DEMAND SPLITTER,Outlet,1
 Non-Parent Node Connection,SPACE3-1 ZONE COIL WATER IN NODE,CONNECTOR:SPLITTER,HEATING DEMAND SPLITTER,Outlet,1
 Non-Parent Node Connection,SPACE4-1 ZONE COIL WATER IN NODE,CONNECTOR:SPLITTER,HEATING DEMAND SPLITTER,Outlet,1
 Non-Parent Node Connection,SPACE5-1 ZONE COIL WATER IN NODE,CONNECTOR:SPLITTER,HEATING DEMAND SPLITTER,Outlet,1
 Non-Parent Node Connection,MAIN HEATING COIL 1 WATER INLET NODE,CONNECTOR:SPLITTER,HEATING DEMAND SPLITTER,Outlet,1
 Non-Parent Node Connection,HEATING DEMAND BYPASS INLET NODE,CONNECTOR:SPLITTER,HEATING DEMAND SPLITTER,Outlet,1
 Non-Parent Node Connection,HW DEMAND EXIT PIPE INLET NODE,CONNECTOR:MIXER,HEATING DEMAND MIXER,Outlet,1
 Non-Parent Node Connection,SPACE1-1 ZONE COIL WATER OUT NODE,CONNECTOR:MIXER,HEATING DEMAND MIXER,Inlet,1
 Non-Parent Node Connection,SPACE2-1 ZONE COIL WATER OUT NODE,CONNECTOR:MIXER,HEATING DEMAND MIXER,Inlet,1
 Non-Parent Node Connection,SPACE3-1 ZONE COIL WATER OUT NODE,CONNECTOR:MIXER,HEATING DEMAND MIXER,Inlet,1
 Non-Parent Node Connection,SPACE4-1 ZONE COIL WATER OUT NODE,CONNECTOR:MIXER,HEATING DEMAND MIXER,Inlet,1
 Non-Parent Node Connection,SPACE5-1 ZONE COIL WATER OUT NODE,CONNECTOR:MIXER,HEATING DEMAND MIXER,Inlet,1
 Non-Parent Node Connection,MAIN HEATING COIL 1 WATER OUTLET NODE,CONNECTOR:MIXER,HEATING DEMAND MIXER,Inlet,1
 Non-Parent Node Connection,HEATING DEMAND BYPASS OUTLET NODE,CONNECTOR:MIXER,HEATING DEMAND MIXER,Inlet,1
 Non-Parent Node Connection,CENTRAL BOILER INLET NODE,BOILER:HOTWATER,CENTRAL BOILER,Inlet,1
 Non-Parent Node Connection,CENTRAL BOILER OUTLET NODE,BOILER:HOTWATER,CENTRAL BOILER,Outlet,1
 Non-Parent Node Connection,HW PUMP OUTLET NODE,CONNECTOR:SPLITTER,HEATING SUPPLY SPLITTER,Inlet,1
 Non-Parent Node Connection,CENTRAL BOILER INLET NODE,CONNECTOR:SPLITTER,HEATING SUPPLY SPLITTER,Outlet,1
 Non-Parent Node Connection,HEATING SUPPLY BYPASS INLET NODE,CONNECTOR:SPLITTER,HEATING SUPPLY SPLITTER,Outlet,1
 Non-Parent Node Connection,HEATING SUPPLY EXIT PIPE INLET NODE,CONNECTOR:MIXER,HEATING SUPPLY MIXER,Outlet,1
 Non-Parent Node Connection,CENTRAL BOILER OUTLET NODE,CONNECTOR:MIXER,HEATING SUPPLY MIXER,Inlet,1
 Non-Parent Node Connection,HEATING SUPPLY BYPASS OUTLET NODE,CONNECTOR:MIXER,HEATING SUPPLY MIXER,Inlet,1
 Non-Parent Node Connection,CW DEMAND ENTRANCE PIPE OUTLET NODE,CONNECTOR:SPLITTER,CW DEMAND SPLITTER,Inlet,1
 Non-Parent Node Connection,MAIN COOLING COIL 1 WATER INLET NODE,CONNECTOR:SPLITTER,CW DEMAND SPLITTER,Outlet,1
 Non-Parent Node Connection,CW DEMAND BYPASS INLET NODE,CONNECTOR:SPLITTER,CW DEMAND SPLITTER,Outlet,1
 Non-Parent Node Connection,CW DEMAND EXIT PIPE INLET NODE,CONNECTOR:MIXER,CW DEMAND MIXER,Outlet,1
 Non-Parent Node Connection,MAIN COOLING COIL 1 WATER OUTLET NODE,CONNECTOR:MIXER,CW DEMAND MIXER,Inlet,1
 Non-Parent Node Connection,CW DEMAND BYPASS OUTLET NODE,CONNECTOR:MIXER,CW DEMAND MIXER,Inlet,1
 Non-Parent Node Connection,CENTRAL CHILLER INLET NODE,CHILLER:ELECTRIC,CENTRAL CHILLER,Inlet,1
 Non-Parent Node Connection,CENTRAL CHILLER OUTLET NODE,CHILLER:ELECTRIC,CENTRAL CHILLER,Outlet,1
 Non-Parent Node Connection,CENTRAL CHILLER CONDENSER INLET NODE,CHILLER:ELECTRIC,CENTRAL CHILLER,OutsideAirReference,2
 Non-Parent Node Connection,CENTRAL CHILLER CONDENSER OUTLET NODE,CHILLER:ELECTRIC,CENTRAL CHILLER,Outlet,2
 Non-Parent Node Connection,CW PUMP OUTLET NODE,CONNECTOR:SPLITTER,CW LOOP SPLITTER,Inlet,1
 Non-Parent Node Connection,CENTRAL CHILLER INLET NODE,CONNECTOR:SPLITTER,CW LOOP SPLITTER,Outlet,1
 Non-Parent Node Connection,CW SUPPLY BYPASS INLET NODE,CONNECTOR:SPLITTER,CW LOOP SPLITTER,Outlet,1
 Non-Parent Node Connection,SUPPLY SIDE EXIT PIPE INLET NODE,CONNECTOR:MIXER,CW LOOP MIXER,Outlet,1
 Non-Parent Node Connection,CENTRAL CHILLER OUTLET NODE,CONNECTOR:MIXER,CW LOOP MIXER,Inlet,1
 Non-Parent Node Connection,CW SUPPLY BYPASS OUTLET NODE,CONNECTOR:MIXER,CW LOOP MIXER,Inlet,1
 Non-Parent Node Connection,ZONE EQ IN NODE,AIRLOOPHVAC:ZONESPLITTER,ZONE SUPPLY AIR SPLITTER 1,Inlet,1
 Non-Parent Node Connection,SPACE1-1 ATU IN NODE,AIRLOOPHVAC:ZONESPLITTER,ZONE SUPPLY AIR SPLITTER 1,Outlet,1
 Non-Parent Node Connection,SPACE2-1 ATU IN NODE,AIRLOOPHVAC:ZONESPLITTER,ZONE SUPPLY AIR SPLITTER 1,Outlet,1
 Non-Parent Node Connection,SPACE3-1 ATU IN NODE,AIRLOOPHVAC:ZONESPLITTER,ZONE SUPPLY AIR SPLITTER 1,Outlet,1
 Non-Parent Node Connection,SPACE4-1 ATU IN NODE,AIRLOOPHVAC:ZONESPLITTER,ZONE SUPPLY AIR SPLITTER 1,Outlet,1
 Non-Parent Node Connection,SPACE5-1 ATU IN NODE,AIRLOOPHVAC:ZONESPLITTER,ZONE SUPPLY AIR SPLITTER 1,Outlet,1
 Non-Parent Node Connection,SPACE1-1 ZONE COIL WATER IN NODE,COIL:HEATING:WATER,SPACE1-1 ZONE COIL,Inlet,2
 Non-Parent Node Connection,SPACE1-1 ZONE COIL WATER OUT NODE,COIL:HEATING:WATER,SPACE1-1 ZONE COIL,Outlet,2
 Non-Parent Node Connection,SPACE1-1 ZONE COIL AIR IN NODE,COIL:HEATING:WATER,SPACE1-1 ZONE COIL,Inlet,1
 Non-Parent Node Connection,SPACE1-1 IN NODE,COIL:HEATING:WATER,SPACE1-1 ZONE COIL,Outlet,1
 Non-Parent Node Connection,SPACE2-1 ZONE COIL WATER IN NODE,COIL:HEATING:WATER,SPACE2-1 ZONE COIL,Inlet,2
 Non-Parent Node Connection,SPACE2-1 ZONE COIL WATER OUT NODE,COIL:HEATING:WATER,SPACE2-1 ZONE COIL,Outlet,2
 Non-Parent Node Connection,SPACE2-1 ZONE COIL AIR IN NODE,COIL:HEATING:WATER,SPACE2-1 ZONE COIL,Inlet,1
 Non-Parent Node Connection,SPACE2-1 IN NODE,COIL:HEATING:WATER,SPACE2-1 ZONE COIL,Outlet,1
 Non-Parent Node Connection,SPACE3-1 ZONE COIL WATER IN NODE,COIL:HEATING:WATER,SPACE3-1 ZONE COIL,Inlet,2
 Non-Parent Node Connection,SPACE3-1 ZONE COIL WATER OUT NODE,COIL:HEATING:WATER,SPACE3-1 ZONE COIL,Outlet,2
 Non-Parent Node Connection,SPACE3-1 ZONE COIL AIR IN NODE,COIL:HEATING:WATER,SPACE3-1 ZONE COIL,Inlet,1
 Non-Parent Node Connection,SPACE3-1 IN NODE,COIL:HEATING:WATER,SPACE3-1 ZONE COIL,Outlet,1
 Non-Parent Node Connection,SPACE4-1 ZONE COIL WATER IN NODE,COIL:HEATING:WATER,SPACE4-1 ZONE COIL,Inlet,2
 Non-Parent Node Connection,SPACE4-1 ZONE COIL WATER OUT NODE,COIL:HEATING:WATER,SPACE4-1 ZONE COIL,Outlet,2
 Non-Parent Node Connection,SPACE4-1 ZONE COIL AIR IN NODE,COIL:HEATING:WATER,SPACE4-1 ZONE COIL,Inlet,1
 Non-Parent Node Connection,SPACE4-1 IN NODE,COIL:HEATING:WATER,SPACE4-1 ZONE COIL,Outlet,1
 Non-Parent Node Connection,SPACE5-1 ZONE COIL WATER IN NODE,COIL:HEATING:WATER,SPACE5-1 ZONE COIL,Inlet,2
 Non-Parent Node Connection,SPACE5-1 ZONE COIL WATER OUT NODE,COIL:HEATING:WATER,SPACE5-1 ZONE COIL,Outlet,2
 Non-Parent Node Connection,SPACE5-1 ATU IN NODE,COIL:HEATING:WATER,SPACE5-1 ZONE COIL,Inlet,1
 Non-Parent Node Connection,SPACE5-1 IN NODE,COIL:HEATING:WATER,SPACE5-1 ZONE COIL,Outlet,1
 Non-Parent Node Connection,MAIN HEATING COIL 1 WATER INLET NODE,COIL:HEATING:WATER,MAIN HEATING COIL 1,Inlet,2
 Non-Parent Node Connection,MAIN HEATING COIL 1 WATER OUTLET NODE,COIL:HEATING:WATER,MAIN HEATING COIL 1,Outlet,2
 Non-Parent Node Connection,MAIN COOLING COIL 1 OUTLET NODE,COIL:HEATING:WATER,MAIN HEATING COIL 1,Inlet,1
 Non-Parent Node Connection,MAIN HEATING COIL 1 OUTLET NODE,COIL:HEATING:WATER,MAIN HEATING COIL 1,Outlet,1
 Non-Parent Node Connection,MAIN COOLING COIL 1 WATER INLET NODE,COIL:COOLING:WATER,MAIN COOLING COIL 1,Inlet,2
 Non-Parent Node Connection,MAIN COOLING COIL 1 WATER OUTLET NODE,COIL:COOLING:WATER,MAIN COOLING COIL 1,Outlet,2
 Non-Parent Node Connection,MIXED AIR NODE 1,COIL:COOLING:WATER,MAIN COOLING COIL 1,Inlet,1
 Non-Parent Node Connection,MAIN COOLING COIL 1 OUTLET NODE,COIL:COOLING:WATER,MAIN COOLING COIL 1,Outlet,1
 Non-Parent Node Connection,SPACE1-1 ATU FAN INLET NODE,FAN:CONSTANTVOLUME,SPACE1-1 PIU FAN,Inlet,1
 Non-Parent Node Connection,SPACE1-1 ZONE COIL AIR IN NODE,FAN:CONSTANTVOLUME,SPACE1-1 PIU FAN,Outlet,1
 Non-Parent Node Connection,SPACE2-1 ATU SEC NODE,FAN:CONSTANTVOLUME,SPACE2-1 PIU FAN,Inlet,1
 Non-Parent Node Connection,SPACE2-1 ATU FAN OUTLET NODE,FAN:CONSTANTVOLUME,SPACE2-1 PIU FAN,Outlet,1
 Non-Parent Node Connection,SPACE3-1 ATU FAN INLET NODE,FAN:CONSTANTVOLUME,SPACE3-1 PIU FAN,Inlet,1
 Non-Parent Node Connection,SPACE3-1 ZONE COIL AIR IN NODE,FAN:CONSTANTVOLUME,SPACE3-1 PIU FAN,Outlet,1
 Non-Parent Node Connection,SPACE4-1 ATU SEC NODE,FAN:CONSTANTVOLUME,SPACE4-1 PIU FAN,Inlet,1
 Non-Parent Node Connection,SPACE4-1 ATU FAN OUTLET NODE,FAN:CONSTANTVOLUME,SPACE4-1 PIU FAN,Outlet,1
 Non-Parent Node Connection,MAIN HEATING COIL 1 OUTLET NODE,FAN:VARIABLEVOLUME,SUPPLY FAN 1,Inlet,1
 Non-Parent Node Connection,VAV SYS 1 OUTLET NODE,FAN:VARIABLEVOLUME,SUPPLY FAN 1,Outlet,1
 Non-Parent Node Connection,RELIEF AIR OUTLET NODE 1,FAN:VARIABLEVOLUME,RELIEF FAN 1,Inlet,1
 Non-Parent Node Connection,RELIEF FAN AIR OUTLET NODE 1,FAN:VARIABLEVOLUME,RELIEF FAN 1,Outlet,1
 Non-Parent Node Connection,SPACE1-1 ATU FAN INLET NODE,AIRLOOPHVAC:ZONEMIXER,SPACE1-1 PIU MIXER,Outlet,1
 Non-Parent Node Connection,SPACE1-1 ATU IN NODE,AIRLOOPHVAC:ZONEMIXER,SPACE1-1 PIU MIXER,Inlet,1
 Non-Parent Node Connection,SPACE1-1 ATU SEC NODE,AIRLOOPHVAC:ZONEMIXER,SPACE1-1 PIU MIXER,Inlet,1
 Non-Parent Node Connection,SPACE2-1 ZONE COIL AIR IN NODE,AIRLOOPHVAC:ZONEMIXER,SPACE2-1 PIU MIXER,Outlet,1
 Non-Parent Node Connection,SPACE2-1 ATU IN NODE,AIRLOOPHVAC:ZONEMIXER,SPACE2-1 PIU MIXER,Inlet,1
 Non-Parent Node Connection,SPACE2-1 ATU FAN OUTLET NODE,AIRLOOPHVAC:ZONEMIXER,SPACE2-1 PIU MIXER,Inlet,1
 Non-Parent Node Connection,SPACE3-1 ATU FAN INLET NODE,AIRLOOPHVAC:ZONEMIXER,SPACE3-1 PIU MIXER,Outlet,1
 Non-Parent Node Connection,SPACE3-1 ATU IN NODE,AIRLOOPHVAC:ZONEMIXER,SPACE3-1 PIU MIXER,Inlet,1
 Non-Parent Node Connection,SPACE3-1 ATU SEC NODE,AIRLOOPHVAC:ZONEMIXER,SPACE3-1 PIU MIXER,Inlet,1
 Non-Parent Node Connection,SPACE4-1 ZONE COIL AIR IN NODE,AIRLOOPHVAC:ZONEMIXER,SPACE4-1 PIU MIXER,Outlet,1
 Non-Parent Node Connection,SPACE4-1 ATU IN NODE,AIRLOOPHVAC:ZONEMIXER,SPACE4-1 PIU MIXER,Inlet,1
 Non-Parent Node Connection,SPACE4-1 ATU FAN OUTLET NODE,AIRLOOPHVAC:ZONEMIXER,SPACE4-1 PIU MIXER,Inlet,1
 Non-Parent Node Connection,MAIN COOLING COIL 1 OUTLET NODE,CONTROLLER:WATERCOIL,CENTRAL COOLING COIL CONTOLLER 1,Sensor,1
 Non-Parent Node Connection,MAIN COOLING COIL 1 WATER INLET NODE,CONTROLLER:WATERCOIL,CENTRAL COOLING COIL CONTOLLER 1,Actuator,1
 Non-Parent Node Connection,MAIN HEATING COIL 1 OUTLET NODE,CONTROLLER:WATERCOIL,CENTRAL HEATING COIL CONTOLLER 1,Sensor,1
 Non-Parent Node Connection,MAIN HEATING COIL 1 WATER INLET NODE,CONTROLLER:WATERCOIL,CENTRAL HEATING COIL CONTOLLER 1,Actuator,1
 Non-Parent Node Connection,PLENUM-1 NODE,AIRLOOPHVAC:RETURNPLENUM,RETURN-PLENUM-1,ZoneNode,1
 Non-Parent Node Connection,PLENUM-1 OUT NODE,AIRLOOPHVAC:RETURNPLENUM,RETURN-PLENUM-1,Outlet,1
 Non-Parent Node Connection,SPACE1-1 ATU SEC NODE,AIRLOOPHVAC:RETURNPLENUM,RETURN-PLENUM-1,InducedAir,1
 Non-Parent Node Connection,SPACE4-1 ATU SEC NODE,AIRLOOPHVAC:RETURNPLENUM,RETURN-PLENUM-1,InducedAir,1
 Non-Parent Node Connection,SPACE1-1 OUT NODE,AIRLOOPHVAC:RETURNPLENUM,RETURN-PLENUM-1,Inlet,1
 Non-Parent Node Connection,SPACE2-1 OUT NODE,AIRLOOPHVAC:RETURNPLENUM,RETURN-PLENUM-1,Inlet,1
 Non-Parent Node Connection,SPACE3-1 OUT NODE,AIRLOOPHVAC:RETURNPLENUM,RETURN-PLENUM-1,Inlet,1
 Non-Parent Node Connection,SPACE4-1 OUT NODE,AIRLOOPHVAC:RETURNPLENUM,RETURN-PLENUM-1,Inlet,1
 Non-Parent Node Connection,SPACE5-1 OUT NODE,AIRLOOPHVAC:RETURNPLENUM,RETURN-PLENUM-1,Inlet,1
 Non-Parent Node Connection,MIXED AIR NODE 1,OUTDOORAIR:MIXER,OA MIXING BOX 1,Outlet,1
 Non-Parent Node Connection,OUTSIDE AIR INLET NODE 1,OUTDOORAIR:MIXER,OA MIXING BOX 1,Inlet,1
 Non-Parent Node Connection,RELIEF AIR OUTLET NODE 1,OUTDOORAIR:MIXER,OA MIXING BOX 1,ReliefAir,1
 Non-Parent Node Connection,VAV SYS 1 INLET NODE,OUTDOORAIR:MIXER,OA MIXING BOX 1,Inlet,1
 Non-Parent Node Connection,MIXED AIR NODE 1,CONTROLLER:OUTDOORAIR,OA CONTROLLER 1,Sensor,1
 Non-Parent Node Connection,OUTSIDE AIR INLET NODE 1,CONTROLLER:OUTDOORAIR,OA CONTROLLER 1,Actuator,1
 Non-Parent Node Connection,RELIEF AIR OUTLET NODE 1,CONTROLLER:OUTDOORAIR,OA CONTROLLER 1,Actuator,1
 Non-Parent Node Connection,VAV SYS 1 INLET NODE,CONTROLLER:OUTDOORAIR,OA CONTROLLER 1,Sensor,1
 Non-Parent Node Connection,HW SUPPLY INLET NODE,PUMP:VARIABLESPEED,HW CIRC PUMP,Inlet,1
 Non-Parent Node Connection,HW PUMP OUTLET NODE,PUMP:VARIABLESPEED,HW CIRC PUMP,Outlet,1
 Non-Parent Node Connection,CW SUPPLY INLET NODE,PUMP:VARIABLESPEED,CW CIRC PUMP,Inlet,1
 Non-Parent Node Connection,CW PUMP OUTLET NODE,PUMP:VARIABLESPEED,CW CIRC PUMP,Outlet,1
