  Processing Data Dictionary (Energy+.idd) File -- Complete
  Maximum number of Alpha Args=        4500
  Maximum number of Numeric Args=       21040
  Number of Object Definitions=         732
  Number of Section Definitions=           2
  Total Number of Alpha Fields=       18152
  Total Number of Numeric Fields=       39542
  Total Number of Fields=       57694
  Processing Input Data File (in.idf) -- Start
      1 !-Generator IDFEditor 1.34
      2 !-Option OriginalOrderTop UseSpecialFormat
      3 !-NOTE: All comments with '!-' are ignored by the IDFEditor and are generated automatically.
      4 !-      Use '!' comments if they need to be retained when using the IDFEditor.
      5 ! 5ZoneAsGenHVACAfterZoneConfig.idf
      6 ! Basic file description:  1 story building divided into 4 exterior and one interior conditioned zones and return plenum.
      7 !
      8 ! Highlights:              Electric chiller with air cooled condenser; autosized preheating and precooling water coils in the
      9 !                          outside air stream controlled to preheat and precool setpoints.  One zone has no HVAC but rather sits at the exit of another zone and is thus only conditioned by the air passed through it.
     10 !
     11 ! Simulation Location/Run: CHICAGO_IL_USA TMY2-94846, 2 design days, 2 run periods,
     12 !                          Run Control executes the run periods using the weather file
     13 !
     14 ! Location:                Chicago, IL
     15 !
     16 ! Design Days:             CHICAGO_IL_USA Annual Heating 99% Design Conditions DB, MaxDB= -17.3°C
     17 !                          CHICAGO_IL_USA Annual Cooling 1% Design Conditions, MaxDB=  31.5°C MCWB=  23.0°C
     18 !
     19 ! Run Period (Weather File): 1/1 through 12/31, CHICAGO_IL_USA TMY2-94846
     20 !
     21 ! Run Control:             Zone and System sizing with weather file run control (no design days run)
     22 !
     23 ! Building: Single floor rectangular building 100 ft x 50 ft. 5 zones - 4 exterior, 1 interior, zone height 8 feet.
     24 !           Exterior zone depth is 12 feet. There is a 2 foot high return plenum: the overall building height is
     25 !           10 feet. There are windows on all 4 facades; the south and north facades have glass doors.
     26 !           The south facing glass is shaded by overhangs. The walls are woodshingle over plywood, R11 insulation,
     27 !           and gypboard. The roof is a gravel built up roof with R-3 mineral board insulation and plywood sheathing.
     28 !           The windows are of various single and double pane construction with 3mm and 6mm glass and either 6mm or
     29 !           13mm argon or air gap.  The window to wall ratio is approxomately 0.29.
     30 !           The south wall and door have overhangs.
     31 !
     32 !           The building is oriented 30 degrees east of north.
     33 !
     34 ! Floor Area:        463.6 m2 (5000 ft2)
     35 ! Number of Stories: 1
     36 !
     37 ! Zone Description Details:
     38 !
     39 !      (0,15.2,0)                      (30.5,15.2,0)
     40 !           _____   ________                ____
     41 !         |\     ***        ****************   /|
     42 !         | \                                 / |
     43 !         |  \                 (26.8,11.6,0) /  |
     44 !         *   \_____________________________/   *
     45 !         *    |(3.7,11.6,0)               |    *
     46 !         *    |                           |    *
     47 !         *    |                           |    *
     48 !         *    |               (26.8,3.7,0)|    *
     49 !         *    |___________________________|    *
     50 !         *   / (3.7,3.7,0)                 \   *
     51 !         |  /                               \  |
     52 !         | /                                 \ |
     53 !         |/___******************___***________\|
     54 !          |       Overhang        |   |
     55 !          |_______________________|   |   window/door = *
     56 !                                  |___|
     57 !
     58 !      (0,0,0)                            (30.5,0,0)
     59 !
     60 ! Internal gains description:     lighting is 1.5 watts/ft2, office equip is 1.0 watts/ft2. There is 1 occupant
     61 !                                 per 100 ft2 of floor area. The infiltration is 0.25 air changes per hour.
     62 !
     63 ! Interzone Surfaces:             6 interzone surfaces (see diagram)
     64 ! Internal Mass:                  None
     65 ! People:                         50
     66 ! Lights:                         7500 W
     67 ! Windows:                        4 ea.: 1) Double pane clear, 3mm glass, 13mm air gap
     68 !                                        2) Double pane clear, 3mm glass, 13mm argon gap
     69 !                                        3) Double pane clear, 6mm glass, 6mm air gap
     70 !                                        4) Double pane lowE,  6mm lowE glass outside, 6mm air gap, 6mm clear glass
     71 !
     72 ! Doors:                          2 ea.:    Single pane grey,  3mm glass
     73 !
     74 ! Detached Shading:               None
     75 ! Daylight:                       None
     76 ! Natural Ventilation:            None
     77 ! Compact Schedules:              Yes
     78 !
     79 ! HVAC:                           Standard VAV system with outside air, hot water reheat coils,
     80 !                                 central chilled water cooling coil. Central Plant is single hot water
     81 !                                 boiler, electric compression chiller with air cooled condenser.
     82 !                                 All equipment is autosized. HW and ChW coils are used in the outside air
     83 !                                 stream to precondition the outside air.
     84 !
     85 ! Zonal Equipment:                AirTerminal:SingleDuct:VAV:Reheat
     86 ! Central Air Handling Equipment: Yes
     87 ! System Equipment Autosize:      Yes
     88 ! Purchased Cooling:              None
     89 ! Purchased Heating:              None
     90 ! Coils:                          Coil:Cooling:Water, Coil:Heating:Water
     91 ! Pumps:                          Pump:VariableSpeed
     92 ! Boilers:                        Boiler:HotWater
     93 ! Chillers:                       Chiller:Electric
     94 !
     95 ! Results:
     96 ! Standard Reports:               None
     97 ! Timestep or Hourly Variables:   Hourly
     98 ! Time bins Report:               None
     99 ! HTML Report:                    None
    100 ! Environmental Emissions:        None
    101 ! Utility Tariffs:                None
    102 
    103   Version,8.2;
    104 
    105   Building,
    106     Building,                !- Name
    107     30.,                     !- North Axis {deg}
    108     City,                    !- Terrain
    109     0.04,                    !- Loads Convergence Tolerance Value
    110     0.4,                     !- Temperature Convergence Tolerance Value {deltaC}
    111     FullExterior,            !- Solar Distribution
    112     25,                      !- Maximum Number of Warmup Days
    113     6;                       !- Minimum Number of Warmup Days
    114 
    115   Timestep,4;
    116 
    117   SurfaceConvectionAlgorithm:Inside,Simple;
    118 
    119   SurfaceConvectionAlgorithm:Outside,SimpleCombined;
    120 
    121   HeatBalanceAlgorithm,ConductionTransferFunction;
    122 
    123   GlobalGeometryRules,
    124     UpperLeftCorner,         !- Starting Vertex Position
    125     CounterClockWise,        !- Vertex Entry Direction
    126     relative;                !- Coordinate System
    127 
    128   ScheduleTypeLimits,
    129     Any Number;              !- Name
    130 
    131   ScheduleTypeLimits,
    132     Fraction,                !- Name
    133     0.0,                     !- Lower Limit Value
    134     1.0,                     !- Upper Limit Value
    135     CONTINUOUS;              !- Numeric Type
    136 
    137   ScheduleTypeLimits,
    138     Temperature,             !- Name
    139     -60,                     !- Lower Limit Value
    140     200,                     !- Upper Limit Value
    141     CONTINUOUS,              !- Numeric Type
    142     Temperature;             !- Unit Type
    143 
    144   ScheduleTypeLimits,
    145     Control Type,            !- Name
    146     0,                       !- Lower Limit Value
    147     4,                       !- Upper Limit Value
    148     DISCRETE;                !- Numeric Type
    149 
    150   ScheduleTypeLimits,
    151     On/Off,                  !- Name
    152     0,                       !- Lower Limit Value
    153     1,                       !- Upper Limit Value
    154     DISCRETE;                !- Numeric Type
    155 
    156   ScheduleTypeLimits,
    157     FlowRate,                !- Name
    158     0.0,                     !- Lower Limit Value
    159     10,                      !- Upper Limit Value
    160     CONTINUOUS;              !- Numeric Type
    161 
    162   RunPeriod,
    163     ,                        !- Name
    164     1,                       !- Begin Month
    165     1,                       !- Begin Day of Month
    166     1,                       !- End Month
    167     31,                      !- End Day of Month
    168     Tuesday,                 !- Day of Week for Start Day
    169     Yes,                     !- Use Weather File Holidays and Special Days
    170     Yes,                     !- Use Weather File Daylight Saving Period
    171     No,                      !- Apply Weekend Holiday Rule
    172     Yes,                     !- Use Weather File Rain Indicators
    173     Yes;                     !- Use Weather File Snow Indicators
    174 
    175   RunPeriod,
    176     ,                        !- Name
    177     7,                       !- Begin Month
    178     1,                       !- Begin Day of Month
    179     7,                       !- End Month
    180     31,                      !- End Day of Month
    181     Monday,                  !- Day of Week for Start Day
    182     Yes,                     !- Use Weather File Holidays and Special Days
    183     Yes,                     !- Use Weather File Daylight Saving Period
    184     No,                      !- Apply Weekend Holiday Rule
    185     Yes,                     !- Use Weather File Rain Indicators
    186     Yes;                     !- Use Weather File Snow Indicators
    187 
    188 !  RunPeriod,
    189 !    1,                       !- Begin Month
    190 !    14,                      !- Begin Day Of Month
    191 !    1,                       !- End Month
    192 !    14,                      !- End Day Of Month
    193 !    Tuesday,                 !- Day Of Week For Start Day
    194 !    Yes,                     !- Use WeatherFile Holidays/Special Days
    195 !    Yes,                     !- Use WeatherFile DaylightSavingPeriod
    196 !    No,                      !- Apply Weekend Holiday Rule
    197 !    Yes,                     !- Use WeatherFile Rain Indicators
    198 !    Yes;                     !- Use WeatherFile Snow Indicators
    199 !  RunPeriod,
    200 !    7,                       !- Begin Month
    201 !    7,                       !- Begin Day Of Month
    202 !    7,                       !- End Month
    203 !    7,                       !- End Day Of Month
    204 !    Tuesday,                 !- Day Of Week For Start Day
    205 !    Yes,                     !- Use WeatherFile Holidays/Special Days
    206 !    Yes,                     !- Use WeatherFile DaylightSavingPeriod
    207 !    No,                      !- Apply Weekend Holiday Rule
    208 !    Yes,                     !- Use WeatherFile Rain Indicators
    209 !    Yes;                     !- Use WeatherFile Snow Indicators
    210 
    211   Site:Location,
    212     CHICAGO_IL_USA TMY2-94846,  !- Name
    213     41.78,                   !- Latitude {deg}
    214     -87.75,                  !- Longitude {deg}
    215     -6.00,                   !- Time Zone {hr}
    216     190.00;                  !- Elevation {m}
    217 
    218   SimulationControl,
    219     Yes,                     !- Do Zone Sizing Calculation
    220     Yes,                     !- Do System Sizing Calculation
    221     Yes,                     !- Do Plant Sizing Calculation
    222     No,                      !- Run Simulation for Sizing Periods
    223     Yes;                     !- Run Simulation for Weather File Run Periods
    224 
    225 ! CHICAGO_IL_USA Annual Heating 99% Design Conditions DB, MaxDB= -17.3°C
    226 
    227   SizingPeriod:DesignDay,
    228     CHICAGO_IL_USA Annual Heating 99% Design Conditions DB,  !- Name
    229     1,                       !- Month
    230     21,                      !- Day of Month
    231     WinterDesignDay,         !- Day Type
    232     -17.3,                   !- Maximum Dry-Bulb Temperature {C}
    233     0.0,                     !- Daily Dry-Bulb Temperature Range {deltaC}
    234     ,                        !- Dry-Bulb Temperature Range Modifier Type
    235     ,                        !- Dry-Bulb Temperature Range Modifier Day Schedule Name
    236     Wetbulb,                 !- Humidity Condition Type
    237     -17.3,                   !- Wetbulb or DewPoint at Maximum Dry-Bulb {C}
    238     ,                        !- Humidity Condition Day Schedule Name
    239     ,                        !- Humidity Ratio at Maximum Dry-Bulb {kgWater/kgDryAir}
    240     ,                        !- Enthalpy at Maximum Dry-Bulb {J/kg}
    241     ,                        !- Daily Wet-Bulb Temperature Range {deltaC}
    242     99063.,                  !- Barometric Pressure {Pa}
    243     4.9,                     !- Wind Speed {m/s}
    244     270,                     !- Wind Direction {deg}
    245     No,                      !- Rain Indicator
    246     No,                      !- Snow Indicator
    247     No,                      !- Daylight Saving Time Indicator
    248     ASHRAEClearSky,          !- Solar Model Indicator
    249     ,                        !- Beam Solar Day Schedule Name
    250     ,                        !- Diffuse Solar Day Schedule Name
    251     ,                        !- ASHRAE Clear Sky Optical Depth for Beam Irradiance (taub) {dimensionless}
    252     ,                        !- ASHRAE Clear Sky Optical Depth for Diffuse Irradiance (taud) {dimensionless}
    253     0.0;                     !- Sky Clearness
    254 
    255 ! CHICAGO_IL_USA Annual Cooling 1% Design Conditions, MaxDB=  31.5°C MCWB=  23.0°C
    256 
    257   SizingPeriod:DesignDay,
    258     CHICAGO_IL_USA Annual Cooling 1% Design Conditions DB/MCWB,  !- Name
    259     7,                       !- Month
    260     21,                      !- Day of Month
    261     SummerDesignDay,         !- Day Type
    262     31.5,                    !- Maximum Dry-Bulb Temperature {C}
    263     10.7,                    !- Daily Dry-Bulb Temperature Range {deltaC}
    264     ,                        !- Dry-Bulb Temperature Range Modifier Type
    265     ,                        !- Dry-Bulb Temperature Range Modifier Day Schedule Name
    266     Wetbulb,                 !- Humidity Condition Type
    267     23.0,                    !- Wetbulb or DewPoint at Maximum Dry-Bulb {C}
    268     ,                        !- Humidity Condition Day Schedule Name
    269     ,                        !- Humidity Ratio at Maximum Dry-Bulb {kgWater/kgDryAir}
    270     ,                        !- Enthalpy at Maximum Dry-Bulb {J/kg}
    271     ,                        !- Daily Wet-Bulb Temperature Range {deltaC}
    272     99063.,                  !- Barometric Pressure {Pa}
    273     5.3,                     !- Wind Speed {m/s}
    274     230,                     !- Wind Direction {deg}
    275     No,                      !- Rain Indicator
    276     No,                      !- Snow Indicator
    277     No,                      !- Daylight Saving Time Indicator
    278     ASHRAEClearSky,          !- Solar Model Indicator
    279     ,                        !- Beam Solar Day Schedule Name
    280     ,                        !- Diffuse Solar Day Schedule Name
    281     ,                        !- ASHRAE Clear Sky Optical Depth for Beam Irradiance (taub) {dimensionless}
    282     ,                        !- ASHRAE Clear Sky Optical Depth for Diffuse Irradiance (taud) {dimensionless}
    283     1.0;                     !- Sky Clearness
    284 
    285   Site:GroundTemperature:BuildingSurface,20.03,20.03,20.13,20.30,20.43,20.52,20.62,20.77,20.78,20.55,20.44,20.20;
    286 
    287   Material,
    288     WD10,                    !- Name
    289     MediumSmooth,            !- Roughness
    290     0.667,                   !- Thickness {m}
    291     0.115,                   !- Conductivity {W/m-K}
    292     513,                     !- Density {kg/m3}
    293     1381,                    !- Specific Heat {J/kg-K}
    294     0.9,                     !- Thermal Absorptance
    295     0.78,                    !- Solar Absorptance
    296     0.78;                    !- Visible Absorptance
    297 
    298   Material,
    299     RG01,                    !- Name
    300     Rough,                   !- Roughness
    301     1.2700000E-02,           !- Thickness {m}
    302     1.442000,                !- Conductivity {W/m-K}
    303     881.0000,                !- Density {kg/m3}
    304     1674.000,                !- Specific Heat {J/kg-K}
    305     0.9000000,               !- Thermal Absorptance
    306     0.6500000,               !- Solar Absorptance
    307     0.6500000;               !- Visible Absorptance
    308 
    309   Material,
    310     BR01,                    !- Name
    311     VeryRough,               !- Roughness
    312     9.4999997E-03,           !- Thickness {m}
    313     0.1620000,               !- Conductivity {W/m-K}
    314     1121.000,                !- Density {kg/m3}
    315     1464.000,                !- Specific Heat {J/kg-K}
    316     0.9000000,               !- Thermal Absorptance
    317     0.7000000,               !- Solar Absorptance
    318     0.7000000;               !- Visible Absorptance
    319 
    320   Material,
    321     IN46,                    !- Name
    322     VeryRough,               !- Roughness
    323     7.6200001E-02,           !- Thickness {m}
    324     2.3000000E-02,           !- Conductivity {W/m-K}
    325     24.00000,                !- Density {kg/m3}
    326     1590.000,                !- Specific Heat {J/kg-K}
    327     0.9000000,               !- Thermal Absorptance
    328     0.5000000,               !- Solar Absorptance
    329     0.5000000;               !- Visible Absorptance
    330 
    331   Material,
    332     WD01,                    !- Name
    333     MediumSmooth,            !- Roughness
    334     1.9099999E-02,           !- Thickness {m}
    335     0.1150000,               !- Conductivity {W/m-K}
    336     513.0000,                !- Density {kg/m3}
    337     1381.000,                !- Specific Heat {J/kg-K}
    338     0.9000000,               !- Thermal Absorptance
    339     0.7800000,               !- Solar Absorptance
    340     0.7800000;               !- Visible Absorptance
    341 
    342   Material,
    343     PW03,                    !- Name
    344     MediumSmooth,            !- Roughness
    345     1.2700000E-02,           !- Thickness {m}
    346     0.1150000,               !- Conductivity {W/m-K}
    347     545.0000,                !- Density {kg/m3}
    348     1213.000,                !- Specific Heat {J/kg-K}
    349     0.9000000,               !- Thermal Absorptance
    350     0.7800000,               !- Solar Absorptance
    351     0.7800000;               !- Visible Absorptance
    352 
    353   Material,
    354     IN02,                    !- Name
    355     Rough,                   !- Roughness
    356     9.0099998E-02,           !- Thickness {m}
    357     4.3000001E-02,           !- Conductivity {W/m-K}
    358     10.00000,                !- Density {kg/m3}
    359     837.0000,                !- Specific Heat {J/kg-K}
    360     0.9000000,               !- Thermal Absorptance
    361     0.7500000,               !- Solar Absorptance
    362     0.7500000;               !- Visible Absorptance
    363 
    364   Material,
    365     GP01,                    !- Name
    366     MediumSmooth,            !- Roughness
    367     1.2700000E-02,           !- Thickness {m}
    368     0.1600000,               !- Conductivity {W/m-K}
    369     801.0000,                !- Density {kg/m3}
    370     837.0000,                !- Specific Heat {J/kg-K}
    371     0.9000000,               !- Thermal Absorptance
    372     0.7500000,               !- Solar Absorptance
    373     0.7500000;               !- Visible Absorptance
    374 
    375   Material,
    376     GP02,                    !- Name
    377     MediumSmooth,            !- Roughness
    378     1.5900001E-02,           !- Thickness {m}
    379     0.1600000,               !- Conductivity {W/m-K}
    380     801.0000,                !- Density {kg/m3}
    381     837.0000,                !- Specific Heat {J/kg-K}
    382     0.9000000,               !- Thermal Absorptance
    383     0.7500000,               !- Solar Absorptance
    384     0.7500000;               !- Visible Absorptance
    385 
    386   Material,
    387     CC03,                    !- Name
    388     MediumRough,             !- Roughness
    389     0.1016000,               !- Thickness {m}
    390     1.310000,                !- Conductivity {W/m-K}
    391     2243.000,                !- Density {kg/m3}
    392     837.0000,                !- Specific Heat {J/kg-K}
    393     0.9000000,               !- Thermal Absorptance
    394     0.6500000,               !- Solar Absorptance
    395     0.6500000;               !- Visible Absorptance
    396 
    397   Material:NoMass,
    398     CP01,                    !- Name
    399     Rough,                   !- Roughness
    400     0.3670000,               !- Thermal Resistance {m2-K/W}
    401     0.9000000,               !- Thermal Absorptance
    402     0.7500000,               !- Solar Absorptance
    403     0.7500000;               !- Visible Absorptance
    404 
    405   Material:NoMass,
    406     MAT-SB-U,                !- Name
    407     Rough,                   !- Roughness
    408     0.117406666,             !- Thermal Resistance {m2-K/W}
    409     0.65,                    !- Thermal Absorptance
    410     0.65,                    !- Solar Absorptance
    411     0.65;                    !- Visible Absorptance
    412 
    413   Material:NoMass,
    414     MAT-CLNG-1,              !- Name
    415     Rough,                   !- Roughness
    416     0.652259290,             !- Thermal Resistance {m2-K/W}
    417     0.65,                    !- Thermal Absorptance
    418     0.65,                    !- Solar Absorptance
    419     0.65;                    !- Visible Absorptance
    420 
    421   Material:NoMass,
    422     MAT-FLOOR-1,             !- Name
    423     Rough,                   !- Roughness
    424     3.522199631,             !- Thermal Resistance {m2-K/W}
    425     0.65,                    !- Thermal Absorptance
    426     0.65,                    !- Solar Absorptance
    427     0.65;                    !- Visible Absorptance
    428 
    429   Material:AirGap,
    430     AL21,                    !- Name
    431     0.1570000;               !- Thermal Resistance {m2-K/W}
    432 
    433   Material:AirGap,
    434     AL23,                    !- Name
    435     0.1530000;               !- Thermal Resistance {m2-K/W}
    436 
    437   Construction,
    438     ROOF-1,                  !- Name
    439     RG01,                    !- Outside Layer
    440     BR01,                    !- Layer 2
    441     IN46,                    !- Layer 3
    442     WD01;                    !- Layer 4
    443 
    444   Construction,
    445     WALL-1,                  !- Name
    446     WD01,                    !- Outside Layer
    447     PW03,                    !- Layer 2
    448     IN02,                    !- Layer 3
    449     GP01;                    !- Layer 4
    450 
    451   Construction,
    452     CLNG-1,                  !- Name
    453     MAT-CLNG-1;              !- Outside Layer
    454 
    455   Construction,
    456     SB-U,                    !- Name
    457     MAT-SB-U;                !- Outside Layer
    458 
    459   Construction,
    460     FLOOR-1,                 !- Name
    461     MAT-FLOOR-1;             !- Outside Layer
    462 
    463   Construction,
    464     FLOOR-SLAB-1,            !- Name
    465     CC03;                    !- Outside Layer
    466 
    467   Construction,
    468     INT-WALL-1,              !- Name
    469     GP02,                    !- Outside Layer
    470     AL21,                    !- Layer 2
    471     GP02;                    !- Layer 3
    472 
    473   WindowMaterial:Gas,
    474     AIR 6MM,                 !- Name
    475     Air,                     !- Gas Type
    476     0.0063;                  !- Thickness {m}
    477 
    478   WindowMaterial:Gas,
    479     AIR 13MM,                !- Name
    480     Air,                     !- Gas Type
    481     0.0127;                  !- Thickness {m}
    482 
    483   WindowMaterial:Gas,
    484     ARGON 13MM,              !- Name
    485     Argon,                   !- Gas Type
    486     0.0127;                  !- Thickness {m}
    487 
    488   WindowMaterial:Glazing,
    489     CLEAR 3MM,               !- Name
    490     SpectralAverage,         !- Optical Data Type
    491     ,                        !- Window Glass Spectral Data Set Name
    492     0.003,                   !- Thickness {m}
    493     0.837,                   !- Solar Transmittance at Normal Incidence
    494     0.075,                   !- Front Side Solar Reflectance at Normal Incidence
    495     0.075,                   !- Back Side Solar Reflectance at Normal Incidence
    496     0.898,                   !- Visible Transmittance at Normal Incidence
    497     0.081,                   !- Front Side Visible Reflectance at Normal Incidence
    498     0.081,                   !- Back Side Visible Reflectance at Normal Incidence
    499     0.0,                     !- Infrared Transmittance at Normal Incidence
    500     0.84,                    !- Front Side Infrared Hemispherical Emissivity
    501     0.84,                    !- Back Side Infrared Hemispherical Emissivity
    502     0.9;                     !- Conductivity {W/m-K}
    503 
    504   WindowMaterial:Glazing,
    505     GREY 3MM,                !- Name
    506     SpectralAverage,         !- Optical Data Type
    507     ,                        !- Window Glass Spectral Data Set Name
    508     0.003,                   !- Thickness {m}
    509     0.626,                   !- Solar Transmittance at Normal Incidence
    510     0.061,                   !- Front Side Solar Reflectance at Normal Incidence
    511     0.061,                   !- Back Side Solar Reflectance at Normal Incidence
    512     0.611,                   !- Visible Transmittance at Normal Incidence
    513     0.061,                   !- Front Side Visible Reflectance at Normal Incidence
    514     0.061,                   !- Back Side Visible Reflectance at Normal Incidence
    515     0.0,                     !- Infrared Transmittance at Normal Incidence
    516     0.84,                    !- Front Side Infrared Hemispherical Emissivity
    517     0.84,                    !- Back Side Infrared Hemispherical Emissivity
    518     0.9;                     !- Conductivity {W/m-K}
    519 
    520   WindowMaterial:Glazing,
    521     CLEAR 6MM,               !- Name
    522     SpectralAverage,         !- Optical Data Type
    523     ,                        !- Window Glass Spectral Data Set Name
    524     0.006,                   !- Thickness {m}
    525     0.775,                   !- Solar Transmittance at Normal Incidence
    526     0.071,                   !- Front Side Solar Reflectance at Normal Incidence
    527     0.071,                   !- Back Side Solar Reflectance at Normal Incidence
    528     0.881,                   !- Visible Transmittance at Normal Incidence
    529     0.080,                   !- Front Side Visible Reflectance at Normal Incidence
    530     0.080,                   !- Back Side Visible Reflectance at Normal Incidence
    531     0.0,                     !- Infrared Transmittance at Normal Incidence
    532     0.84,                    !- Front Side Infrared Hemispherical Emissivity
    533     0.84,                    !- Back Side Infrared Hemispherical Emissivity
    534     0.9;                     !- Conductivity {W/m-K}
    535 
    536   WindowMaterial:Glazing,
    537     LoE CLEAR 6MM,           !- Name
    538     SpectralAverage,         !- Optical Data Type
    539     ,                        !- Window Glass Spectral Data Set Name
    540     0.006,                   !- Thickness {m}
    541     0.600,                   !- Solar Transmittance at Normal Incidence
    542     0.170,                   !- Front Side Solar Reflectance at Normal Incidence
    543     0.220,                   !- Back Side Solar Reflectance at Normal Incidence
    544     0.840,                   !- Visible Transmittance at Normal Incidence
    545     0.055,                   !- Front Side Visible Reflectance at Normal Incidence
    546     0.078,                   !- Back Side Visible Reflectance at Normal Incidence
    547     0.0,                     !- Infrared Transmittance at Normal Incidence
    548     0.84,                    !- Front Side Infrared Hemispherical Emissivity
    549     0.10,                    !- Back Side Infrared Hemispherical Emissivity
    550     0.9;                     !- Conductivity {W/m-K}
    551 
    552   Construction,
    553     Dbl Clr 3mm/13mm Air,    !- Name
    554     CLEAR 3MM,               !- Outside Layer
    555     AIR 13MM,                !- Layer 2
    556     CLEAR 3MM;               !- Layer 3
    557 
    558   Construction,
    559     Dbl Clr 3mm/13mm Arg,    !- Name
    560     CLEAR 3MM,               !- Outside Layer
    561     ARGON 13MM,              !- Layer 2
    562     CLEAR 3MM;               !- Layer 3
    563 
    564   Construction,
    565     Sgl Grey 3mm,            !- Name
    566     GREY 3MM;                !- Outside Layer
    567 
    568   Construction,
    569     Dbl Clr 6mm/6mm Air,     !- Name
    570     CLEAR 6MM,               !- Outside Layer
    571     AIR 6MM,                 !- Layer 2
    572     CLEAR 6MM;               !- Layer 3
    573 
    574   Construction,
    575     Dbl LoE (e2=.1) Clr 6mm/6mm Air,  !- Name
    576     LoE CLEAR 6MM,           !- Outside Layer
    577     AIR 6MM,                 !- Layer 2
    578     CLEAR 6MM;               !- Layer 3
    579 
    580   Schedule:Compact,
    581     OCCUPY-1,                !- Name
    582     Fraction,                !- Schedule Type Limits Name
    583     Through: 12/31,          !- Field 1
    584     For: WeekDays SummerDesignDay CustomDay1 CustomDay2, !- Field 2
    585     Until: 8:00,0.0,         !- Field 3
    586     Until: 11:00,1.00,       !- Field 5
    587     Until: 12:00,0.80,       !- Field 7
    588     Until: 13:00,0.40,       !- Field 9
    589     Until: 14:00,0.80,       !- Field 11
    590     Until: 18:00,1.00,       !- Field 13
    591     Until: 19:00,0.50,       !- Field 15
    592     Until: 24:00,0.0,        !- Field 17
    593     For: Weekends WinterDesignDay Holiday, !- Field 19
    594     Until: 24:00,0.0;        !- Field 20
    595 
    596   Schedule:Compact,
    597     LIGHTS-1,                !- Name
    598     Fraction,                !- Schedule Type Limits Name
    599     Through: 12/31,          !- Field 1
    600     For: WeekDays SummerDesignDay CustomDay1 CustomDay2, !- Field 2
    601     Until: 8:00,0.05,        !- Field 3
    602     Until: 9:00,0.9,         !- Field 5
    603     Until: 10:00,0.95,       !- Field 7
    604     Until: 11:00,1.00,       !- Field 9
    605     Until: 12:00,0.95,       !- Field 11
    606     Until: 13:00,0.8,        !- Field 13
    607     Until: 14:00,0.9,        !- Field 15
    608     Until: 18:00,1.00,       !- Field 17
    609     Until: 19:00,0.60,       !- Field 19
    610     Until: 21:00,0.20,       !- Field 21
    611     Until: 24:00,0.05,       !- Field 23
    612     For: Weekends WinterDesignDay Holiday, !- Field 25
    613     Until: 24:00,0.05;       !- Field 26
    614 
    615   Schedule:Compact,
    616     EQUIP-1,                 !- Name
    617     Fraction,                !- Schedule Type Limits Name
    618     Through: 12/31,          !- Field 1
    619     For: WeekDays SummerDesignDay CustomDay1 CustomDay2, !- Field 2
    620     Until: 8:00,0.02,        !- Field 3
    621     Until: 9:00,0.4,         !- Field 5
    622     Until: 14:00,0.9,        !- Field 7
    623     Until: 15:00,0.8,        !- Field 9
    624     Until: 16:00,0.7,        !- Field 11
    625     Until: 18:00,0.5,        !- Field 13
    626     Until: 20:00,0.3,        !- Field 15
    627     Until: 24:00,0.02,       !- Field 17
    628     For: Weekends WinterDesignDay Holiday, !- Field 19
    629     Until: 24:00,0.2;        !- Field 20
    630 
    631   Schedule:Compact,
    632     INFIL-SCH,               !- Name
    633     Fraction,                !- Schedule Type Limits Name
    634     Through: 3/31,           !- Field 1
    635     For: AllDays,            !- Field 2
    636     Until: 24:00,1.0,        !- Field 3
    637     Through: 10/31,          !- Field 5
    638     For: AllDays,            !- Field 6
    639     Until: 24:00,0.0,        !- Field 7
    640     Through: 12/31,          !- Field 9
    641     For: AllDays,            !- Field 10
    642     Until: 24:00,1.0;        !- Field 11
    643 
    644   Schedule:Compact,
    645     ActSchd,                 !- Name
    646     Any Number,              !- Schedule Type Limits Name
    647     Through: 12/31,          !- Field 1
    648     For: AllDays,            !- Field 2
    649     Until: 24:00,117.239997864; !- Field 3
    650 
    651                              !- Field 4
    652 
    653   Schedule:Compact,
    654     ShadeTransSch,           !- Name
    655     Fraction,                !- Schedule Type Limits Name
    656     Through: 12/31,          !- Field 1
    657     For: AllDays,            !- Field 2
    658     Until: 24:00,0.0;        !- Field 3
    659 
    660   Zone,
    661     PLENUM-1,                !- Name
    662     0,                       !- Direction of Relative North {deg}
    663     0,                       !- X Origin {m}
    664     0,                       !- Y Origin {m}
    665     0,                       !- Z Origin {m}
    666     1,                       !- Type
    667     1,                       !- Multiplier
    668     0.609600067,             !- Ceiling Height {m}
    669     283.2;                   !- Volume {m3}
    670 
    671   BuildingSurface:Detailed,
    672     WALL-1PF,                !- Name
    673     WALL,                    !- Surface Type
    674     WALL-1,                  !- Construction Name
    675     PLENUM-1,                !- Zone Name
    676     Outdoors,                !- Outside Boundary Condition
    677     ,                        !- Outside Boundary Condition Object
    678     SunExposed,              !- Sun Exposure
    679     WindExposed,             !- Wind Exposure
    680     0.50000,                 !- View Factor to Ground
    681     4,                       !- Number of Vertices
    682     0.0,0.0,3.0,  !- X,Y,Z ==> Vertex 1 {m}
    683     0.0,0.0,2.4,  !- X,Y,Z ==> Vertex 2 {m}
    684     30.5,0.0,2.4,  !- X,Y,Z ==> Vertex 3 {m}
    685     30.5,0.0,3.0;  !- X,Y,Z ==> Vertex 4 {m}
    686 
    687   BuildingSurface:Detailed,
    688     WALL-1PR,                !- Name
    689     WALL,                    !- Surface Type
    690     WALL-1,                  !- Construction Name
    691     PLENUM-1,                !- Zone Name
    692     Outdoors,                !- Outside Boundary Condition
    693     ,                        !- Outside Boundary Condition Object
    694     SunExposed,              !- Sun Exposure
    695     WindExposed,             !- Wind Exposure
    696     0.50000,                 !- View Factor to Ground
    697     4,                       !- Number of Vertices
    698     30.5,0.0,3.0,  !- X,Y,Z ==> Vertex 1 {m}
    699     30.5,0.0,2.4,  !- X,Y,Z ==> Vertex 2 {m}
    700     30.5,15.2,2.4,  !- X,Y,Z ==> Vertex 3 {m}
    701     30.5,15.2,3.0;  !- X,Y,Z ==> Vertex 4 {m}
    702 
    703   BuildingSurface:Detailed,
    704     WALL-1PB,                !- Name
    705     WALL,                    !- Surface Type
    706     WALL-1,                  !- Construction Name
    707     PLENUM-1,                !- Zone Name
    708     Outdoors,                !- Outside Boundary Condition
    709     ,                        !- Outside Boundary Condition Object
    710     SunExposed,              !- Sun Exposure
    711     WindExposed,             !- Wind Exposure
    712     0.50000,                 !- View Factor to Ground
    713     4,                       !- Number of Vertices
    714     30.5,15.2,3.0,  !- X,Y,Z ==> Vertex 1 {m}
    715     30.5,15.2,2.4,  !- X,Y,Z ==> Vertex 2 {m}
    716     0.0,15.2,2.4,  !- X,Y,Z ==> Vertex 3 {m}
    717     0.0,15.2,3.0;  !- X,Y,Z ==> Vertex 4 {m}
    718 
    719   BuildingSurface:Detailed,
    720     WALL-1PL,                !- Name
    721     WALL,                    !- Surface Type
    722     WALL-1,                  !- Construction Name
    723     PLENUM-1,                !- Zone Name
    724     Outdoors,                !- Outside Boundary Condition
    725     ,                        !- Outside Boundary Condition Object
    726     SunExposed,              !- Sun Exposure
    727     WindExposed,             !- Wind Exposure
    728     0.50000,                 !- View Factor to Ground
    729     4,                       !- Number of Vertices
    730     0.0,15.2,3.0,  !- X,Y,Z ==> Vertex 1 {m}
    731     0.0,15.2,2.4,  !- X,Y,Z ==> Vertex 2 {m}
    732     0.0,0.0,2.4,  !- X,Y,Z ==> Vertex 3 {m}
    733     0.0,0.0,3.0;  !- X,Y,Z ==> Vertex 4 {m}
    734 
    735   BuildingSurface:Detailed,
    736     TOP-1,                   !- Name
    737     ROOF,                    !- Surface Type
    738     ROOF-1,                  !- Construction Name
    739     PLENUM-1,                !- Zone Name
    740     Outdoors,                !- Outside Boundary Condition
    741     ,                        !- Outside Boundary Condition Object
    742     SunExposed,              !- Sun Exposure
    743     WindExposed,             !- Wind Exposure
    744     0.00000,                 !- View Factor to Ground
    745     4,                       !- Number of Vertices
    746     0.0,15.2,3.0,  !- X,Y,Z ==> Vertex 1 {m}
    747     0.0,0.0,3.0,  !- X,Y,Z ==> Vertex 2 {m}
    748     30.5,0.0,3.0,  !- X,Y,Z ==> Vertex 3 {m}
    749     30.5,15.2,3.0;  !- X,Y,Z ==> Vertex 4 {m}
    750 
    751   BuildingSurface:Detailed,
    752     C1-1P,                   !- Name
    753     FLOOR,                   !- Surface Type
    754     CLNG-1,                  !- Construction Name
    755     PLENUM-1,                !- Zone Name
    756     Surface,                 !- Outside Boundary Condition
    757     C1-1,                    !- Outside Boundary Condition Object
    758     NoSun,                   !- Sun Exposure
    759     NoWind,                  !- Wind Exposure
    760     0.0,                     !- View Factor to Ground
    761     4,                       !- Number of Vertices
    762     26.8,3.7,2.4,  !- X,Y,Z ==> Vertex 1 {m}
    763     30.5,0.0,2.4,  !- X,Y,Z ==> Vertex 2 {m}
    764     0.0,0.0,2.4,  !- X,Y,Z ==> Vertex 3 {m}
    765     3.7,3.7,2.4;  !- X,Y,Z ==> Vertex 4 {m}
    766 
    767   BuildingSurface:Detailed,
    768     C2-1P,                   !- Name
    769     FLOOR,                   !- Surface Type
    770     CLNG-1,                  !- Construction Name
    771     PLENUM-1,                !- Zone Name
    772     Surface,                 !- Outside Boundary Condition
    773     C2-1,                    !- Outside Boundary Condition Object
    774     NoSun,                   !- Sun Exposure
    775     NoWind,                  !- Wind Exposure
    776     0.0,                     !- View Factor to Ground
    777     4,                       !- Number of Vertices
    778     26.8,11.6,2.4,  !- X,Y,Z ==> Vertex 1 {m}
    779     30.5,15.2,2.4,  !- X,Y,Z ==> Vertex 2 {m}
    780     30.5,0.0,2.4,  !- X,Y,Z ==> Vertex 3 {m}
    781     26.8,3.7,2.4;  !- X,Y,Z ==> Vertex 4 {m}
    782 
    783   BuildingSurface:Detailed,
    784     C3-1P,                   !- Name
    785     FLOOR,                   !- Surface Type
    786     CLNG-1,                  !- Construction Name
    787     PLENUM-1,                !- Zone Name
    788     Surface,                 !- Outside Boundary Condition
    789     C3-1,                    !- Outside Boundary Condition Object
    790     NoSun,                   !- Sun Exposure
    791     NoWind,                  !- Wind Exposure
    792     0.0,                     !- View Factor to Ground
    793     4,                       !- Number of Vertices
    794     26.8,11.6,2.4,  !- X,Y,Z ==> Vertex 1 {m}
    795     3.7,11.6,2.4,  !- X,Y,Z ==> Vertex 2 {m}
    796     0.0,15.2,2.4,  !- X,Y,Z ==> Vertex 3 {m}
    797     30.5,15.2,2.4;  !- X,Y,Z ==> Vertex 4 {m}
    798 
    799   BuildingSurface:Detailed,
    800     C4-1P,                   !- Name
    801     FLOOR,                   !- Surface Type
    802     CLNG-1,                  !- Construction Name
    803     PLENUM-1,                !- Zone Name
    804     Surface,                 !- Outside Boundary Condition
    805     C4-1,                    !- Outside Boundary Condition Object
    806     NoSun,                   !- Sun Exposure
    807     NoWind,                  !- Wind Exposure
    808     0.0,                     !- View Factor to Ground
    809     4,                       !- Number of Vertices
    810     3.7,3.7,2.4,  !- X,Y,Z ==> Vertex 1 {m}
    811     0.0,0.0,2.4,  !- X,Y,Z ==> Vertex 2 {m}
    812     0.0,15.2,2.4,  !- X,Y,Z ==> Vertex 3 {m}
    813     3.7,11.6,2.4;  !- X,Y,Z ==> Vertex 4 {m}
    814 
    815   BuildingSurface:Detailed,
    816     C5-1P,                   !- Name
    817     FLOOR,                   !- Surface Type
    818     CLNG-1,                  !- Construction Name
    819     PLENUM-1,                !- Zone Name
    820     Surface,                 !- Outside Boundary Condition
    821     C5-1,                    !- Outside Boundary Condition Object
    822     NoSun,                   !- Sun Exposure
    823     NoWind,                  !- Wind Exposure
    824     0.0,                     !- View Factor to Ground
    825     4,                       !- Number of Vertices
    826     26.8,11.6,2.4,  !- X,Y,Z ==> Vertex 1 {m}
    827     26.8,3.7,2.4,  !- X,Y,Z ==> Vertex 2 {m}
    828     3.7,3.7,2.4,  !- X,Y,Z ==> Vertex 3 {m}
    829     3.7,11.6,2.4;  !- X,Y,Z ==> Vertex 4 {m}
    830 
    831   Zone,
    832     SPACE1-1,                !- Name
    833     0,                       !- Direction of Relative North {deg}
    834     0,                       !- X Origin {m}
    835     0,                       !- Y Origin {m}
    836     0,                       !- Z Origin {m}
    837     1,                       !- Type
    838     1,                       !- Multiplier
    839     2.438400269,             !- Ceiling Height {m}
    840     239.247360229;           !- Volume {m3}
    841 
    842   ZoneInfiltration:DesignFlowRate,
    843     SPACE1-1 Infil 1,        !- Name
    844     SPACE1-1,                !- Zone or ZoneList Name
    845     INFIL-SCH,               !- Schedule Name
    846     flow/zone,               !- Design Flow Rate Calculation Method
    847     0.032,                   !- Design Flow Rate {m3/s}
    848     ,                        !- Flow per Zone Floor Area {m3/s-m2}
    849     ,                        !- Flow per Exterior Surface Area {m3/s-m2}
    850     ,                        !- Air Changes per Hour {1/hr}
    851     0,                       !- Constant Term Coefficient
    852     0,                       !- Temperature Term Coefficient
    853     0.2237,                  !- Velocity Term Coefficient
    854     0;                       !- Velocity Squared Term Coefficient
    855 
    856   People,
    857     SPACE1-1 People 1,       !- Name
    858     SPACE1-1,                !- Zone or ZoneList Name
    859     OCCUPY-1,                !- Number of People Schedule Name
    860     people,                  !- Number of People Calculation Method
    861     11,                      !- Number of People
    862     ,                        !- People per Zone Floor Area {person/m2}
    863     ,                        !- Zone Floor Area per Person {m2/person}
    864     0.3,                     !- Fraction Radiant
    865     ,                        !- Sensible Heat Fraction
    866     ActSchd;                 !- Activity Level Schedule Name
    867 
    868   Lights,
    869     SPACE1-1 Lights 1,       !- Name
    870     SPACE1-1,                !- Zone or ZoneList Name
    871     LIGHTS-1,                !- Schedule Name
    872     LightingLevel,           !- Design Level Calculation Method
    873     1584,                    !- Lighting Level {W}
    874     ,                        !- Watts per Zone Floor Area {W/m2}
    875     ,                        !- Watts per Person {W/person}
    876     0.2,                     !- Return Air Fraction
    877     0.59,                    !- Fraction Radiant
    878     0.2,                     !- Fraction Visible
    879     0,                       !- Fraction Replaceable
    880     GeneralLights;           !- End-Use Subcategory
    881 
    882   ElectricEquipment,
    883     SPACE1-1 ElecEq 1,       !- Name
    884     SPACE1-1,                !- Zone or ZoneList Name
    885     EQUIP-1,                 !- Schedule Name
    886     EquipmentLevel,          !- Design Level Calculation Method
    887     1056,                    !- Design Level {W}
    888     ,                        !- Watts per Zone Floor Area {W/m2}
    889     ,                        !- Watts per Person {W/person}
    890     0,                       !- Fraction Latent
    891     0.3,                     !- Fraction Radiant
    892     0;                       !- Fraction Lost
    893 
    894   BuildingSurface:Detailed,
    895     FRONT-1,                 !- Name
    896     WALL,                    !- Surface Type
    897     WALL-1,                  !- Construction Name
    898     SPACE1-1,                !- Zone Name
    899     Outdoors,                !- Outside Boundary Condition
    900     ,                        !- Outside Boundary Condition Object
    901     SunExposed,              !- Sun Exposure
    902     WindExposed,             !- Wind Exposure
    903     0.50000,                 !- View Factor to Ground
    904     4,                       !- Number of Vertices
    905     0.0,0.0,2.4,  !- X,Y,Z ==> Vertex 1 {m}
    906     0.0,0.0,0.0,  !- X,Y,Z ==> Vertex 2 {m}
    907     30.5,0.0,0.0,  !- X,Y,Z ==> Vertex 3 {m}
    908     30.5,0.0,2.4;  !- X,Y,Z ==> Vertex 4 {m}
    909 
    910   FenestrationSurface:Detailed,
    911     WF-1,                    !- Name
    912     WINDOW,                  !- Surface Type
    913     Dbl Clr 3mm/13mm Air,    !- Construction Name
    914     FRONT-1,                 !- Building Surface Name
    915     ,                        !- Outside Boundary Condition Object
    916     0.50000,                 !- View Factor to Ground
    917     ,                        !- Shading Control Name
    918     ,                        !- Frame and Divider Name
    919     1,                       !- Multiplier
    920     4,                       !- Number of Vertices
    921     3.0,0.0,2.1,  !- X,Y,Z ==> Vertex 1 {m}
    922     3.0,0.0,0.9,  !- X,Y,Z ==> Vertex 2 {m}
    923     16.8,0.0,0.9,  !- X,Y,Z ==> Vertex 3 {m}
    924     16.8,0.0,2.1;  !- X,Y,Z ==> Vertex 4 {m}
    925 
    926   FenestrationSurface:Detailed,
    927     DF-1,                    !- Name
    928     GLASSDOOR,               !- Surface Type
    929     Sgl Grey 3mm,            !- Construction Name
    930     FRONT-1,                 !- Building Surface Name
    931     ,                        !- Outside Boundary Condition Object
    932     0.50000,                 !- View Factor to Ground
    933     ,                        !- Shading Control Name
    934     ,                        !- Frame and Divider Name
    935     1,                       !- Multiplier
    936     4,                       !- Number of Vertices
    937     21.3,0.0,2.1,  !- X,Y,Z ==> Vertex 1 {m}
    938     21.3,0.0,0.0,  !- X,Y,Z ==> Vertex 2 {m}
    939     23.8,0.0,0.0,  !- X,Y,Z ==> Vertex 3 {m}
    940     23.8,0.0,2.1;  !- X,Y,Z ==> Vertex 4 {m}
    941 
    942   Shading:Zone:Detailed,
    943     Main South Overhang,     !- Name
    944     FRONT-1,                 !- Base Surface Name
    945     ShadeTransSch,           !- Transmittance Schedule Name
    946     4,                       !- Number of Vertices
    947     0.0,-1.3,2.2,  !- X,Y,Z ==> Vertex 1 {m}
    948     0.0,0.0,2.2,  !- X,Y,Z ==> Vertex 2 {m}
    949     19.8,0.0,2.2,  !- X,Y,Z ==> Vertex 3 {m}
    950     19.8,-1.3,2.2;  !- X,Y,Z ==> Vertex 4 {m}
    951 
    952   Shading:Zone:Detailed,
    953     South Door Overhang,     !- Name
    954     FRONT-1,                 !- Base Surface Name
    955     ShadeTransSch,           !- Transmittance Schedule Name
    956     4,                       !- Number of Vertices
    957     21.0,-2.0,2.6,  !- X,Y,Z ==> Vertex 1 {m}
    958     21.0,0.0,2.6,  !- X,Y,Z ==> Vertex 2 {m}
    959     24.1,0.0,2.6,  !- X,Y,Z ==> Vertex 3 {m}
    960     24.1,-2.0,2.6;  !- X,Y,Z ==> Vertex 4 {m}
    961 
    962   BuildingSurface:Detailed,
    963     C1-1,                    !- Name
    964     CEILING,                 !- Surface Type
    965     CLNG-1,                  !- Construction Name
    966     SPACE1-1,                !- Zone Name
    967     Surface,                 !- Outside Boundary Condition
    968     C1-1P,                   !- Outside Boundary Condition Object
    969     NoSun,                   !- Sun Exposure
    970     NoWind,                  !- Wind Exposure
    971     0.0,                     !- View Factor to Ground
    972     4,                       !- Number of Vertices
    973     3.7,3.7,2.4,  !- X,Y,Z ==> Vertex 1 {m}
    974     0.0,0.0,2.4,  !- X,Y,Z ==> Vertex 2 {m}
    975     30.5,0.0,2.4,  !- X,Y,Z ==> Vertex 3 {m}
    976     26.8,3.7,2.4;  !- X,Y,Z ==> Vertex 4 {m}
    977 
    978   BuildingSurface:Detailed,
    979     F1-1,                    !- Name
    980     FLOOR,                   !- Surface Type
    981     FLOOR-SLAB-1,            !- Construction Name
    982     SPACE1-1,                !- Zone Name
    983     Ground,                  !- Outside Boundary Condition
    984     ,                        !- Outside Boundary Condition Object
    985     NoSun,                   !- Sun Exposure
    986     NoWind,                  !- Wind Exposure
    987     0.0,                     !- View Factor to Ground
    988     4,                       !- Number of Vertices
    989     26.8,3.7,0.0,  !- X,Y,Z ==> Vertex 1 {m}
    990     30.5,0.0,0.0,  !- X,Y,Z ==> Vertex 2 {m}
    991     0.0,0.0,0.0,  !- X,Y,Z ==> Vertex 3 {m}
    992     3.7,3.7,0.0;  !- X,Y,Z ==> Vertex 4 {m}
    993 
    994   BuildingSurface:Detailed,
    995     SB12,                    !- Name
    996     WALL,                    !- Surface Type
    997     INT-WALL-1,              !- Construction Name
    998     SPACE1-1,                !- Zone Name
    999     Surface,                 !- Outside Boundary Condition
   1000     SB21,                    !- Outside Boundary Condition Object
   1001     NoSun,                   !- Sun Exposure
   1002     NoWind,                  !- Wind Exposure
   1003     0.0,                     !- View Factor to Ground
   1004     4,                       !- Number of Vertices
   1005     30.5,0.0,2.4,  !- X,Y,Z ==> Vertex 1 {m}
   1006     30.5,0.0,0.0,  !- X,Y,Z ==> Vertex 2 {m}
   1007     26.8,3.7,0.0,  !- X,Y,Z ==> Vertex 3 {m}
   1008     26.8,3.7,2.4;  !- X,Y,Z ==> Vertex 4 {m}
   1009 
   1010   BuildingSurface:Detailed,
   1011     SB14,                    !- Name
   1012     WALL,                    !- Surface Type
   1013     INT-WALL-1,              !- Construction Name
   1014     SPACE1-1,                !- Zone Name
   1015     Surface,                 !- Outside Boundary Condition
   1016     SB41,                    !- Outside Boundary Condition Object
   1017     NoSun,                   !- Sun Exposure
   1018     NoWind,                  !- Wind Exposure
   1019     0.0,                     !- View Factor to Ground
   1020     4,                       !- Number of Vertices
   1021     3.7,3.7,2.4,  !- X,Y,Z ==> Vertex 1 {m}
   1022     3.7,3.7,0.0,  !- X,Y,Z ==> Vertex 2 {m}
   1023     0.0,0.0,0.0,  !- X,Y,Z ==> Vertex 3 {m}
   1024     0.0,0.0,2.4;  !- X,Y,Z ==> Vertex 4 {m}
   1025 
   1026   BuildingSurface:Detailed,
   1027     SB15,                    !- Name
   1028     WALL,                    !- Surface Type
   1029     INT-WALL-1,              !- Construction Name
   1030     SPACE1-1,                !- Zone Name
   1031     Surface,                 !- Outside Boundary Condition
   1032     SB51,                    !- Outside Boundary Condition Object
   1033     NoSun,                   !- Sun Exposure
   1034     NoWind,                  !- Wind Exposure
   1035     0.0,                     !- View Factor to Ground
   1036     4,                       !- Number of Vertices
   1037     26.8,3.7,2.4,  !- X,Y,Z ==> Vertex 1 {m}
   1038     26.8,3.7,0.0,  !- X,Y,Z ==> Vertex 2 {m}
   1039     3.7,3.7,0.0,  !- X,Y,Z ==> Vertex 3 {m}
   1040     3.7,3.7,2.4;  !- X,Y,Z ==> Vertex 4 {m}
   1041 
   1042   Zone,
   1043     SPACE2-1,                !- Name
   1044     0,                       !- Direction of Relative North {deg}
   1045     0,                       !- X Origin {m}
   1046     0,                       !- Y Origin {m}
   1047     0,                       !- Z Origin {m}
   1048     1,                       !- Type
   1049     1,                       !- Multiplier
   1050     2.438400269,             !- Ceiling Height {m}
   1051     103.311355591;           !- Volume {m3}
   1052 
   1053   ZoneInfiltration:DesignFlowRate,
   1054     SPACE2-1 Infil 1,        !- Name
   1055     SPACE2-1,                !- Zone or ZoneList Name
   1056     INFIL-SCH,               !- Schedule Name
   1057     flow/zone,               !- Design Flow Rate Calculation Method
   1058     0.014,                   !- Design Flow Rate {m3/s}
   1059     ,                        !- Flow per Zone Floor Area {m3/s-m2}
   1060     ,                        !- Flow per Exterior Surface Area {m3/s-m2}
   1061     ,                        !- Air Changes per Hour {1/hr}
   1062     0,                       !- Constant Term Coefficient
   1063     0,                       !- Temperature Term Coefficient
   1064     0.2237,                  !- Velocity Term Coefficient
   1065     0;                       !- Velocity Squared Term Coefficient
   1066 
   1067   People,
   1068     SPACE2-1 People 1,       !- Name
   1069     SPACE2-1,                !- Zone or ZoneList Name
   1070     OCCUPY-1,                !- Number of People Schedule Name
   1071     people,                  !- Number of People Calculation Method
   1072     5,                       !- Number of People
   1073     ,                        !- People per Zone Floor Area {person/m2}
   1074     ,                        !- Zone Floor Area per Person {m2/person}
   1075     0.3,                     !- Fraction Radiant
   1076     ,                        !- Sensible Heat Fraction
   1077     ActSchd;                 !- Activity Level Schedule Name
   1078 
   1079   Lights,
   1080     SPACE2-1 Lights 1,       !- Name
   1081     SPACE2-1,                !- Zone or ZoneList Name
   1082     LIGHTS-1,                !- Schedule Name
   1083     LightingLevel,           !- Design Level Calculation Method
   1084     684,                     !- Lighting Level {W}
   1085     ,                        !- Watts per Zone Floor Area {W/m2}
   1086     ,                        !- Watts per Person {W/person}
   1087     0.2,                     !- Return Air Fraction
   1088     0.59,                    !- Fraction Radiant
   1089     0.2,                     !- Fraction Visible
   1090     0,                       !- Fraction Replaceable
   1091     GeneralLights;           !- End-Use Subcategory
   1092 
   1093   ElectricEquipment,
   1094     SPACE2-1 ElecEq 1,       !- Name
   1095     SPACE2-1,                !- Zone or ZoneList Name
   1096     EQUIP-1,                 !- Schedule Name
   1097     EquipmentLevel,          !- Design Level Calculation Method
   1098     456,                     !- Design Level {W}
   1099     ,                        !- Watts per Zone Floor Area {W/m2}
   1100     ,                        !- Watts per Person {W/person}
   1101     0,                       !- Fraction Latent
   1102     0.3,                     !- Fraction Radiant
   1103     0;                       !- Fraction Lost
   1104 
   1105   BuildingSurface:Detailed,
   1106     RIGHT-1,                 !- Name
   1107     WALL,                    !- Surface Type
   1108     WALL-1,                  !- Construction Name
   1109     SPACE2-1,                !- Zone Name
   1110     Outdoors,                !- Outside Boundary Condition
   1111     ,                        !- Outside Boundary Condition Object
   1112     SunExposed,              !- Sun Exposure
   1113     WindExposed,             !- Wind Exposure
   1114     0.50000,                 !- View Factor to Ground
   1115     4,                       !- Number of Vertices
   1116     30.5,0.0,2.4,  !- X,Y,Z ==> Vertex 1 {m}
   1117     30.5,0.0,0.0,  !- X,Y,Z ==> Vertex 2 {m}
   1118     30.5,15.2,0.0,  !- X,Y,Z ==> Vertex 3 {m}
   1119     30.5,15.2,2.4;  !- X,Y,Z ==> Vertex 4 {m}
   1120 
   1121   FenestrationSurface:Detailed,
   1122     WR-1,                    !- Name
   1123     WINDOW,                  !- Surface Type
   1124     Dbl Clr 3mm/13mm Air,    !- Construction Name
   1125     RIGHT-1,                 !- Building Surface Name
   1126     ,                        !- Outside Boundary Condition Object
   1127     0.50000,                 !- View Factor to Ground
   1128     ,                        !- Shading Control Name
   1129     ,                        !- Frame and Divider Name
   1130     1,                       !- Multiplier
   1131     4,                       !- Number of Vertices
   1132     30.5,3.8,2.1,  !- X,Y,Z ==> Vertex 1 {m}
   1133     30.5,3.8,0.9,  !- X,Y,Z ==> Vertex 2 {m}
   1134     30.5,11.4,0.9,  !- X,Y,Z ==> Vertex 3 {m}
   1135     30.5,11.4,2.1;  !- X,Y,Z ==> Vertex 4 {m}
   1136 
   1137   BuildingSurface:Detailed,
   1138     C2-1,                    !- Name
   1139     CEILING,                 !- Surface Type
   1140     CLNG-1,                  !- Construction Name
   1141     SPACE2-1,                !- Zone Name
   1142     Surface,                 !- Outside Boundary Condition
   1143     C2-1P,                   !- Outside Boundary Condition Object
   1144     NoSun,                   !- Sun Exposure
   1145     NoWind,                  !- Wind Exposure
   1146     0.0,                     !- View Factor to Ground
   1147     4,                       !- Number of Vertices
   1148     26.8,3.7,2.4,  !- X,Y,Z ==> Vertex 1 {m}
   1149     30.5,0.0,2.4,  !- X,Y,Z ==> Vertex 2 {m}
   1150     30.5,15.2,2.4,  !- X,Y,Z ==> Vertex 3 {m}
   1151     26.8,11.6,2.4;  !- X,Y,Z ==> Vertex 4 {m}
   1152 
   1153   BuildingSurface:Detailed,
   1154     F2-1,                    !- Name
   1155     FLOOR,                   !- Surface Type
   1156     FLOOR-SLAB-1,            !- Construction Name
   1157     SPACE2-1,                !- Zone Name
   1158     Ground,                  !- Outside Boundary Condition
   1159     ,                        !- Outside Boundary Condition Object
   1160     NoSun,                   !- Sun Exposure
   1161     NoWind,                  !- Wind Exposure
   1162     0.0,                     !- View Factor to Ground
   1163     4,                       !- Number of Vertices
   1164     26.8,11.6,0.0,  !- X,Y,Z ==> Vertex 1 {m}
   1165     30.5,15.2,0.0,  !- X,Y,Z ==> Vertex 2 {m}
   1166     30.5,0.0,0.0,  !- X,Y,Z ==> Vertex 3 {m}
   1167     26.8,3.7,0.0;  !- X,Y,Z ==> Vertex 4 {m}
   1168 
   1169   BuildingSurface:Detailed,
   1170     SB21,                    !- Name
   1171     WALL,                    !- Surface Type
   1172     INT-WALL-1,              !- Construction Name
   1173     SPACE2-1,                !- Zone Name
   1174     Surface,                 !- Outside Boundary Condition
   1175     SB12,                    !- Outside Boundary Condition Object
   1176     NoSun,                   !- Sun Exposure
   1177     NoWind,                  !- Wind Exposure
   1178     0.0,                     !- View Factor to Ground
   1179     4,                       !- Number of Vertices
   1180     26.8,3.7,2.4,  !- X,Y,Z ==> Vertex 1 {m}
   1181     26.8,3.7,0.0,  !- X,Y,Z ==> Vertex 2 {m}
   1182     30.5,0.0,0.0,  !- X,Y,Z ==> Vertex 3 {m}
   1183     30.5,0.0,2.4;  !- X,Y,Z ==> Vertex 4 {m}
   1184 
   1185   BuildingSurface:Detailed,
   1186     SB23,                    !- Name
   1187     WALL,                    !- Surface Type
   1188     INT-WALL-1,              !- Construction Name
   1189     SPACE2-1,                !- Zone Name
   1190     Surface,                 !- Outside Boundary Condition
   1191     SB32,                    !- Outside Boundary Condition Object
   1192     NoSun,                   !- Sun Exposure
   1193     NoWind,                  !- Wind Exposure
   1194     0.0,                     !- View Factor to Ground
   1195     4,                       !- Number of Vertices
   1196     30.5,15.2,2.4,  !- X,Y,Z ==> Vertex 1 {m}
   1197     30.5,15.2,0.0,  !- X,Y,Z ==> Vertex 2 {m}
   1198     26.8,11.6,0.0,  !- X,Y,Z ==> Vertex 3 {m}
   1199     26.8,11.6,2.4;  !- X,Y,Z ==> Vertex 4 {m}
   1200 
   1201   BuildingSurface:Detailed,
   1202     SB25,                    !- Name
   1203     WALL,                    !- Surface Type
   1204     INT-WALL-1,              !- Construction Name
   1205     SPACE2-1,                !- Zone Name
   1206     Surface,                 !- Outside Boundary Condition
   1207     SB52,                    !- Outside Boundary Condition Object
   1208     NoSun,                   !- Sun Exposure
   1209     NoWind,                  !- Wind Exposure
   1210     0.0,                     !- View Factor to Ground
   1211     4,                       !- Number of Vertices
   1212     26.8,11.6,2.4,  !- X,Y,Z ==> Vertex 1 {m}
   1213     26.8,11.6,0.0,  !- X,Y,Z ==> Vertex 2 {m}
   1214     26.8,3.7,0.0,  !- X,Y,Z ==> Vertex 3 {m}
   1215     26.8,3.7,2.4;  !- X,Y,Z ==> Vertex 4 {m}
   1216 
   1217   Zone,
   1218     SPACE3-1,                !- Name
   1219     0,                       !- Direction of Relative North {deg}
   1220     0,                       !- X Origin {m}
   1221     0,                       !- Y Origin {m}
   1222     0,                       !- Z Origin {m}
   1223     1,                       !- Type
   1224     1,                       !- Multiplier
   1225     2.438400269,             !- Ceiling Height {m}
   1226     239.247360229;           !- Volume {m3}
   1227 
   1228   ZoneInfiltration:DesignFlowRate,
   1229     SPACE3-1 Infil 1,        !- Name
   1230     SPACE3-1,                !- Zone or ZoneList Name
   1231     INFIL-SCH,               !- Schedule Name
   1232     flow/zone,               !- Design Flow Rate Calculation Method
   1233     0.032,                   !- Design Flow Rate {m3/s}
   1234     ,                        !- Flow per Zone Floor Area {m3/s-m2}
   1235     ,                        !- Flow per Exterior Surface Area {m3/s-m2}
   1236     ,                        !- Air Changes per Hour {1/hr}
   1237     0,                       !- Constant Term Coefficient
   1238     0,                       !- Temperature Term Coefficient
   1239     0.2237,                  !- Velocity Term Coefficient
   1240     0;                       !- Velocity Squared Term Coefficient
   1241 
   1242   People,
   1243     SPACE3-1 People 1,       !- Name
   1244     SPACE3-1,                !- Zone or ZoneList Name
   1245     OCCUPY-1,                !- Number of People Schedule Name
   1246     people,                  !- Number of People Calculation Method
   1247     11,                      !- Number of People
   1248     ,                        !- People per Zone Floor Area {person/m2}
   1249     ,                        !- Zone Floor Area per Person {m2/person}
   1250     0.3,                     !- Fraction Radiant
   1251     ,                        !- Sensible Heat Fraction
   1252     ActSchd;                 !- Activity Level Schedule Name
   1253 
   1254   Lights,
   1255     SPACE3-1 Lights 1,       !- Name
   1256     SPACE3-1,                !- Zone or ZoneList Name
   1257     LIGHTS-1,                !- Schedule Name
   1258     LightingLevel,           !- Design Level Calculation Method
   1259     1584,                    !- Lighting Level {W}
   1260     ,                        !- Watts per Zone Floor Area {W/m2}
   1261     ,                        !- Watts per Person {W/person}
   1262     0.2,                     !- Return Air Fraction
   1263     0.59,                    !- Fraction Radiant
   1264     0.2,                     !- Fraction Visible
   1265     0,                       !- Fraction Replaceable
   1266     GeneralLights;           !- End-Use Subcategory
   1267 
   1268   ElectricEquipment,
   1269     SPACE3-1 ElecEq 1,       !- Name
   1270     SPACE3-1,                !- Zone or ZoneList Name
   1271     EQUIP-1,                 !- Schedule Name
   1272     EquipmentLevel,          !- Design Level Calculation Method
   1273     1056,                    !- Design Level {W}
   1274     ,                        !- Watts per Zone Floor Area {W/m2}
   1275     ,                        !- Watts per Person {W/person}
   1276     0,                       !- Fraction Latent
   1277     0.3,                     !- Fraction Radiant
   1278     0;                       !- Fraction Lost
   1279 
   1280   BuildingSurface:Detailed,
   1281     BACK-1,                  !- Name
   1282     WALL,                    !- Surface Type
   1283     WALL-1,                  !- Construction Name
   1284     SPACE3-1,                !- Zone Name
   1285     Outdoors,                !- Outside Boundary Condition
   1286     ,                        !- Outside Boundary Condition Object
   1287     SunExposed,              !- Sun Exposure
   1288     WindExposed,             !- Wind Exposure
   1289     0.50000,                 !- View Factor to Ground
   1290     4,                       !- Number of Vertices
   1291     30.5,15.2,2.4,  !- X,Y,Z ==> Vertex 1 {m}
   1292     30.5,15.2,0.0,  !- X,Y,Z ==> Vertex 2 {m}
   1293     0.0,15.2,0.0,  !- X,Y,Z ==> Vertex 3 {m}
   1294     0.0,15.2,2.4;  !- X,Y,Z ==> Vertex 4 {m}
   1295 
   1296   FenestrationSurface:Detailed,
   1297     WB-1,                    !- Name
   1298     WINDOW,                  !- Surface Type
   1299     Dbl Clr 3mm/13mm Air,    !- Construction Name
   1300     BACK-1,                  !- Building Surface Name
   1301     ,                        !- Outside Boundary Condition Object
   1302     0.50000,                 !- View Factor to Ground
   1303     ,                        !- Shading Control Name
   1304     ,                        !- Frame and Divider Name
   1305     1,                       !- Multiplier
   1306     4,                       !- Number of Vertices
   1307     27.4,15.2,2.1,  !- X,Y,Z ==> Vertex 1 {m}
   1308     27.4,15.2,0.9,  !- X,Y,Z ==> Vertex 2 {m}
   1309     13.7,15.2,0.9,  !- X,Y,Z ==> Vertex 3 {m}
   1310     13.7,15.2,2.1;  !- X,Y,Z ==> Vertex 4 {m}
   1311 
   1312   FenestrationSurface:Detailed,
   1313     DB-1,                    !- Name
   1314     GLASSDOOR,               !- Surface Type
   1315     Sgl Grey 3mm,            !- Construction Name
   1316     BACK-1,                  !- Building Surface Name
   1317     ,                        !- Outside Boundary Condition Object
   1318     0.50000,                 !- View Factor to Ground
   1319     ,                        !- Shading Control Name
   1320     ,                        !- Frame and Divider Name
   1321     1,                       !- Multiplier
   1322     4,                       !- Number of Vertices
   1323     9.1,15.2,2.1,  !- X,Y,Z ==> Vertex 1 {m}
   1324     9.1,15.2,0.0,  !- X,Y,Z ==> Vertex 2 {m}
   1325     7.0,15.2,0.0,  !- X,Y,Z ==> Vertex 3 {m}
   1326     7.0,15.2,2.1;  !- X,Y,Z ==> Vertex 4 {m}
   1327 
   1328   BuildingSurface:Detailed,
   1329     C3-1,                    !- Name
   1330     CEILING,                 !- Surface Type
   1331     CLNG-1,                  !- Construction Name
   1332     SPACE3-1,                !- Zone Name
   1333     Surface,                 !- Outside Boundary Condition
   1334     C3-1P,                   !- Outside Boundary Condition Object
   1335     NoSun,                   !- Sun Exposure
   1336     NoWind,                  !- Wind Exposure
   1337     0.0,                     !- View Factor to Ground
   1338     4,                       !- Number of Vertices
   1339     30.5,15.2,2.4,  !- X,Y,Z ==> Vertex 1 {m}
   1340     0.0,15.2,2.4,  !- X,Y,Z ==> Vertex 2 {m}
   1341     3.7,11.6,2.4,  !- X,Y,Z ==> Vertex 3 {m}
   1342     26.8,11.6,2.4;  !- X,Y,Z ==> Vertex 4 {m}
   1343 
   1344   BuildingSurface:Detailed,
   1345     F3-1,                    !- Name
   1346     FLOOR,                   !- Surface Type
   1347     FLOOR-SLAB-1,            !- Construction Name
   1348     SPACE3-1,                !- Zone Name
   1349     Ground,                  !- Outside Boundary Condition
   1350     ,                        !- Outside Boundary Condition Object
   1351     NoSun,                   !- Sun Exposure
   1352     NoWind,                  !- Wind Exposure
   1353     0.0,                     !- View Factor to Ground
   1354     4,                       !- Number of Vertices
   1355     26.8,11.6,0.0,  !- X,Y,Z ==> Vertex 1 {m}
   1356     3.7,11.6,0.0,  !- X,Y,Z ==> Vertex 2 {m}
   1357     0.0,15.2,0.0,  !- X,Y,Z ==> Vertex 3 {m}
   1358     30.5,15.2,0.0;  !- X,Y,Z ==> Vertex 4 {m}
   1359 
   1360   BuildingSurface:Detailed,
   1361     SB32,                    !- Name
   1362     WALL,                    !- Surface Type
   1363     INT-WALL-1,              !- Construction Name
   1364     SPACE3-1,                !- Zone Name
   1365     Surface,                 !- Outside Boundary Condition
   1366     SB23,                    !- Outside Boundary Condition Object
   1367     NoSun,                   !- Sun Exposure
   1368     NoWind,                  !- Wind Exposure
   1369     0.0,                     !- View Factor to Ground
   1370     4,                       !- Number of Vertices
   1371     26.8,11.6,2.4,  !- X,Y,Z ==> Vertex 1 {m}
   1372     26.8,11.6,0.0,  !- X,Y,Z ==> Vertex 2 {m}
   1373     30.5,15.2,0.0,  !- X,Y,Z ==> Vertex 3 {m}
   1374     30.5,15.2,2.4;  !- X,Y,Z ==> Vertex 4 {m}
   1375 
   1376   BuildingSurface:Detailed,
   1377     SB34,                    !- Name
   1378     WALL,                    !- Surface Type
   1379     INT-WALL-1,              !- Construction Name
   1380     SPACE3-1,                !- Zone Name
   1381     Surface,                 !- Outside Boundary Condition
   1382     SB43,                    !- Outside Boundary Condition Object
   1383     NoSun,                   !- Sun Exposure
   1384     NoWind,                  !- Wind Exposure
   1385     0.0,                     !- View Factor to Ground
   1386     4,                       !- Number of Vertices
   1387     0.0,15.2,2.4,  !- X,Y,Z ==> Vertex 1 {m}
   1388     0.0,15.2,0.0,  !- X,Y,Z ==> Vertex 2 {m}
   1389     3.7,11.6,0.0,  !- X,Y,Z ==> Vertex 3 {m}
   1390     3.7,11.6,2.4;  !- X,Y,Z ==> Vertex 4 {m}
   1391 
   1392   BuildingSurface:Detailed,
   1393     SB35,                    !- Name
   1394     WALL,                    !- Surface Type
   1395     INT-WALL-1,              !- Construction Name
   1396     SPACE3-1,                !- Zone Name
   1397     Surface,                 !- Outside Boundary Condition
   1398     SB53,                    !- Outside Boundary Condition Object
   1399     NoSun,                   !- Sun Exposure
   1400     NoWind,                  !- Wind Exposure
   1401     0.0,                     !- View Factor to Ground
   1402     4,                       !- Number of Vertices
   1403     3.7,11.6,2.4,  !- X,Y,Z ==> Vertex 1 {m}
   1404     3.7,11.6,0.0,  !- X,Y,Z ==> Vertex 2 {m}
   1405     26.8,11.6,0.0,  !- X,Y,Z ==> Vertex 3 {m}
   1406     26.8,11.6,2.4;  !- X,Y,Z ==> Vertex 4 {m}
   1407 
   1408   Zone,
   1409     SPACE4-1,                !- Name
   1410     0,                       !- Direction of Relative North {deg}
   1411     0,                       !- X Origin {m}
   1412     0,                       !- Y Origin {m}
   1413     0,                       !- Z Origin {m}
   1414     1,                       !- Type
   1415     1,                       !- Multiplier
   1416     2.438400269,             !- Ceiling Height {m}
   1417     103.311355591;           !- Volume {m3}
   1418 
   1419   ZoneInfiltration:DesignFlowRate,
   1420     SPACE4-1 Infil 1,        !- Name
   1421     SPACE4-1,                !- Zone or ZoneList Name
   1422     INFIL-SCH,               !- Schedule Name
   1423     flow/zone,               !- Design Flow Rate Calculation Method
   1424     0.014,                   !- Design Flow Rate {m3/s}
   1425     ,                        !- Flow per Zone Floor Area {m3/s-m2}
   1426     ,                        !- Flow per Exterior Surface Area {m3/s-m2}
   1427     ,                        !- Air Changes per Hour {1/hr}
   1428     0,                       !- Constant Term Coefficient
   1429     0,                       !- Temperature Term Coefficient
   1430     0.2237,                  !- Velocity Term Coefficient
   1431     0;                       !- Velocity Squared Term Coefficient
   1432 
   1433   People,
   1434     SPACE4-1 People 1,       !- Name
   1435     SPACE4-1,                !- Zone or ZoneList Name
   1436     OCCUPY-1,                !- Number of People Schedule Name
   1437     people,                  !- Number of People Calculation Method
   1438     5,                       !- Number of People
   1439     ,                        !- People per Zone Floor Area {person/m2}
   1440     ,                        !- Zone Floor Area per Person {m2/person}
   1441     0.3,                     !- Fraction Radiant
   1442     ,                        !- Sensible Heat Fraction
   1443     ActSchd;                 !- Activity Level Schedule Name
   1444 
   1445   Lights,
   1446     SPACE4-1 Lights 1,       !- Name
   1447     SPACE4-1,                !- Zone or ZoneList Name
   1448     LIGHTS-1,                !- Schedule Name
   1449     LightingLevel,           !- Design Level Calculation Method
   1450     684,                     !- Lighting Level {W}
   1451     ,                        !- Watts per Zone Floor Area {W/m2}
   1452     ,                        !- Watts per Person {W/person}
   1453     0.2,                     !- Return Air Fraction
   1454     0.59,                    !- Fraction Radiant
   1455     0.2,                     !- Fraction Visible
   1456     0,                       !- Fraction Replaceable
   1457     GeneralLights;           !- End-Use Subcategory
   1458 
   1459   ElectricEquipment,
   1460     SPACE4-1 ElecEq 1,       !- Name
   1461     SPACE4-1,                !- Zone or ZoneList Name
   1462     EQUIP-1,                 !- Schedule Name
   1463     EquipmentLevel,          !- Design Level Calculation Method
   1464     456,                     !- Design Level {W}
   1465     ,                        !- Watts per Zone Floor Area {W/m2}
   1466     ,                        !- Watts per Person {W/person}
   1467     0,                       !- Fraction Latent
   1468     0.3,                     !- Fraction Radiant
   1469     0;                       !- Fraction Lost
   1470 
   1471   BuildingSurface:Detailed,
   1472     LEFT-1,                  !- Name
   1473     WALL,                    !- Surface Type
   1474     WALL-1,                  !- Construction Name
   1475     SPACE4-1,                !- Zone Name
   1476     Outdoors,                !- Outside Boundary Condition
   1477     ,                        !- Outside Boundary Condition Object
   1478     SunExposed,              !- Sun Exposure
   1479     WindExposed,             !- Wind Exposure
   1480     0.50000,                 !- View Factor to Ground
   1481     4,                       !- Number of Vertices
   1482     0.0,15.2,2.4,  !- X,Y,Z ==> Vertex 1 {m}
   1483     0.0,15.2,0.0,  !- X,Y,Z ==> Vertex 2 {m}
   1484     0.0,0.0,0.0,  !- X,Y,Z ==> Vertex 3 {m}
   1485     0.0,0.0,2.4;  !- X,Y,Z ==> Vertex 4 {m}
   1486 
   1487   FenestrationSurface:Detailed,
   1488     WL-1,                    !- Name
   1489     WINDOW,                  !- Surface Type
   1490     Dbl Clr 3mm/13mm Air,    !- Construction Name
   1491     LEFT-1,                  !- Building Surface Name
   1492     ,                        !- Outside Boundary Condition Object
   1493     0.50000,                 !- View Factor to Ground
   1494     ,                        !- Shading Control Name
   1495     ,                        !- Frame and Divider Name
   1496     1,                       !- Multiplier
   1497     4,                       !- Number of Vertices
   1498     0.0,11.4,2.1,  !- X,Y,Z ==> Vertex 1 {m}
   1499     0.0,11.4,0.9,  !- X,Y,Z ==> Vertex 2 {m}
   1500     0.0,3.8,0.9,  !- X,Y,Z ==> Vertex 3 {m}
   1501     0.0,3.8,2.1;  !- X,Y,Z ==> Vertex 4 {m}
   1502 
   1503   BuildingSurface:Detailed,
   1504     C4-1,                    !- Name
   1505     CEILING,                 !- Surface Type
   1506     CLNG-1,                  !- Construction Name
   1507     SPACE4-1,                !- Zone Name
   1508     Surface,                 !- Outside Boundary Condition
   1509     C4-1P,                   !- Outside Boundary Condition Object
   1510     NoSun,                   !- Sun Exposure
[...]
   3213   Connector:Splitter,
   3214     CW Loop Splitter,        !- Name
   3215     CW Pump Branch,          !- Inlet Branch Name
   3216     Central Chiller Branch,  !- Outlet Branch 1 Name
   3217     Cooling Supply Bypass Branch;  !- Outlet Branch 2 Name
   3218 
   3219   Connector:Mixer,
   3220     CW Loop Mixer,           !- Name
   3221     Cooling Supply Outlet,   !- Outlet Branch Name
   3222     Central Chiller Branch,  !- Inlet Branch 1 Name
   3223     Cooling Supply Bypass Branch;  !- Inlet Branch 2 Name
   3224 
   3225   Connector:Splitter,
   3226     CW Demand Splitter,      !- Name
   3227     Cooling Demand Inlet,    !- Inlet Branch Name
   3228     Cooling Coil Branch,     !- Outlet Branch 1 Name
   3229     OA Cooling Coil Branch,  !- Outlet Branch 2 Name
   3230     Cooling Demand Bypass Branch;  !- Outlet Branch 3 Name
   3231 
   3232   Connector:Mixer,
   3233     CW Demand Mixer,         !- Name
   3234     Cooling Demand Outlet,   !- Outlet Branch Name
   3235     Cooling Coil Branch,     !- Inlet Branch 1 Name
   3236     OA Cooling Coil Branch,  !- Inlet Branch 2 Name
   3237     Cooling Demand Bypass Branch;  !- Inlet Branch 3 Name
   3238 
   3239   PlantEquipmentOperationSchemes,
   3240     CW Loop Operation,       !- Name
   3241     PlantEquipmentOperation:CoolingLoad,  !- Control Scheme 1 Object Type
   3242     Central Chiller Only,    !- Control Scheme 1 Name
   3243     PlantOnSched;            !- Control Scheme 1 Schedule Name
   3244 
   3245   PlantEquipmentOperation:CoolingLoad,
   3246     Central Chiller Only,    !- Name
   3247     0,                       !- Load Range 1 Lower Limit {W}
   3248     900000,                  !- Load Range 1 Upper Limit {W}
   3249     Cooling Plant;           !- Range 1 Equipment List Name
   3250 
   3251   PlantEquipmentList,
   3252     Cooling Plant,           !- Name
   3253     Chiller:Electric,        !- Equipment 1 Object Type
   3254     Central Chiller;         !- Equipment 1 Name
   3255 
   3256   Chiller:Electric,
   3257     Central Chiller,         !- Name
   3258     AirCooled,               !- Condenser Type
   3259     autosize,                !- Nominal Capacity {W}
   3260     3.2,                     !- Nominal COP {W/W}
   3261     Central Chiller Inlet Node,  !- Chilled Water Inlet Node Name
   3262     Central Chiller Outlet Node,  !- Chilled Water Outlet Node Name
   3263     Central Chiller Condenser Inlet Node,  !- Condenser Inlet Node Name
   3264     Central Chiller Condenser Outlet Node,  !- Condenser Outlet Node Name
   3265     0.0,                     !- Minimum Part Load Ratio
   3266     1.0,                     !- Maximum Part Load Ratio
   3267     0.65,                    !- Optimum Part Load Ratio
   3268     35.0,                    !- Design Condenser Inlet Temperature {C}
   3269     2.778,                   !- Temperature Rise Coefficient
   3270     6.67,                    !- Design Chilled Water Outlet Temperature {C}
   3271     autosize,                !- Design Chilled Water Flow Rate {m3/s}
   3272     autosize,                !- Design Condenser Fluid Flow Rate {m3/s}
   3273     0.9949,                  !- Coefficient 1 of Capacity Ratio Curve
   3274     -0.045954,               !- Coefficient 2 of Capacity Ratio Curve
   3275     -0.0013543,              !- Coefficient 3 of Capacity Ratio Curve
   3276     2.333,                   !- Coefficient 1 of Power Ratio Curve
   3277     -1.975,                  !- Coefficient 2 of Power Ratio Curve
   3278     0.6121,                  !- Coefficient 3 of Power Ratio Curve
   3279     0.03303,                 !- Coefficient 1 of Full Load Ratio Curve
   3280     0.6852,                  !- Coefficient 2 of Full Load Ratio Curve
   3281     0.2818,                  !- Coefficient 3 of Full Load Ratio Curve
   3282     5,                       !- Chilled Water Outlet Temperature Lower Limit {C}
   3283     LeavingSetpointModulated;!- Chiller Flow Mode
   3284 
   3285   SetpointManager:Scheduled,
   3286     Central Chiller Setpoint Manager,  !- Name
   3287     Temperature,             !- Control Variable
   3288     CW Loop Temp Schedule,   !- Schedule Name
   3289     Central Chiller Outlet Node;  !- Setpoint Node or NodeList Name
   3290 
   3291   OutdoorAir:Node,
   3292     Central Chiller Condenser Inlet Node,  !- Name
   3293     -1.0;                    !- Height Above Ground {m}
   3294 
   3295   Pump:VariableSpeed,
   3296     CW Circ Pump,            !- Name
   3297     CW Supply Inlet Node,    !- Inlet Node Name
   3298     CW Pump Outlet Node,     !- Outlet Node Name
   3299     autosize,                !- Rated Flow Rate {m3/s}
   3300     179352,                  !- Rated Pump Head {Pa}
   3301     autosize,                !- Rated Power Consumption {W}
   3302     0.9,                     !- Motor Efficiency
   3303     0.0,                     !- Fraction of Motor Inefficiencies to Fluid Stream
   3304     0,                       !- Coefficient 1 of the Part Load Performance Curve
   3305     1,                       !- Coefficient 2 of the Part Load Performance Curve
   3306     0,                       !- Coefficient 3 of the Part Load Performance Curve
   3307     0,                       !- Coefficient 4 of the Part Load Performance Curve
   3308     0,                       !- Minimum Flow Rate {m3/s}
   3309     INTERMITTENT,            !- Pump Control Type
   3310     CoolingPumpAvailSched;   !- Pump Flow Rate Schedule Name
   3311 
   3312   Output:Variable,*,Site Outdoor Air Drybulb Temperature,hourly;
   3313 
   3314   Output:Variable,*,Zone Air Temperature,hourly;
   3315 
   3316   Output:Variable,*,Zone Mean Air Dewpoint Temperature,hourly;
   3317 
   3318   Output:Variable,*,Zone Air System Sensible Cooling Rate,hourly;
   3319 
   3320   Output:Variable,*,Zone Air System Sensible Heating Rate,hourly;
   3321 
   3322   Output:Variable,*,Air Loop Connection Sensible Heating Rate,hourly;
   3323 
   3324   Output:Variable,*,Air Loop Connection Latent Heating Rate,hourly;
   3325 
   3326   Output:Variable,*,Air Loop Connection Total Heating Rate,hourly;
   3327 
   3328   Output:Variable,*,Air Loop Connection Sensible Cooling Rate,hourly;
   3329 
   3330   Output:Variable,*,Air Loop Connection Latent Cooling Rate,hourly;
   3331 
   3332   Output:Variable,*,Air Loop Connection Total Cooling Rate,hourly;
   3333 
   3334   Output:Variable,*,Air Loop Connection Sensible Heating Energy,hourly;
   3335 
   3336   Output:Variable,*,Air Loop Connection Latent Heating Energy,hourly;
   3337 
   3338   Output:Variable,*,Air Loop Connection Total Heating Energy,hourly;
   3339 
   3340   Output:Variable,*,Air Loop Connection Sensible Cooling Energy,hourly;
   3341 
   3342   Output:Variable,*,Air Loop Connection Latent Cooling Energy,hourly;
   3343 
   3344   Output:Variable,*,Air Loop Connection Total Cooling Energy,hourly;
   3345 
   3346   Output:Variable,*,Air Loop Connection Air Mass Flow Rate,hourly;
   3347 
   3348   Output:Variable,*,Air Loop Connection Air Inlet Temperature,hourly;
   3349 
   3350   Output:Variable,*,Air Loop Connection Air Outlet Temperature,hourly;
   3351 
   3352   Output:Variable,*,Air Loop Connection Air Inlet Humidity Ratio,hourly;
   3353 
   3354   Output:Variable,*,Air Loop Connection Air Outlet Humidity Ratio,hourly;
   3355 
   3356   Output:Variable,*,System Node Temperature,hourly;
   3357 
   3358   Output:Variable,OA Mixing Box 1 Inlet Node,System Node Temperature,hourly;
   3359 
   3360   Output:Variable,OA Mixing Box 1 Inlet Node,System Node Mass Flow Rate,hourly;
   3361 
   3362   Output:Variable,OA Mixing Box 1 Inlet Node,System Node Setpoint Temperature,hourly;
   3363 
   3364   Output:Variable,OA Mixing Box 1 Inlet Node,System Node Humidity Ratio,hourly;
   3365 
   3366   Output:Variable,OA Heating Coil 1 Air Outlet Node,System Node Temperature,hourly;
   3367 
   3368   Output:Variable,OA Heating Coil 1 Air Outlet Node,System Node Mass Flow Rate,hourly;
   3369 
   3370   Output:Variable,OA Heating Coil 1 Air Outlet Node,System Node Setpoint Temperature,hourly;
   3371 
   3372   Output:Variable,OA Heating Coil 1 Air Outlet Node,System Node Humidity Ratio,hourly;
   3373 
   3374   Output:Variable,Mixed Air Node 1,System Node Temperature,hourly;
   3375 
   3376   Output:Variable,Mixed Air Node 1,System Node Humidity Ratio,hourly;
   3377 
   3378   Output:Variable,Mixed Air Node 1,System Node Dewpoint Temperature,hourly;
   3379 
   3380   Output:Variable,VAV Sys 1 Outlet Node,System Node Temperature,hourly;
   3381 
   3382   Output:Variable,VAV Sys 1 Outlet Node,System Node Mass Flow Rate,hourly;
   3383 
   3384   Output:Variable,VAV Sys 1 Outlet Node,System Node Humidity Ratio,hourly;
   3385 
   3386   Output:Variable,VAV Sys 1 Outlet Node,System Node Setpoint Temperature,hourly;
   3387 
   3388   Output:Variable,OA Cooling Coil 1 Water Inlet Node,System Node Temperature,hourly;
   3389 
   3390   Output:Variable,OA Cooling Coil 1 Water Inlet Node,System Node Mass Flow Rate,hourly;
   3391 
   3392   Output:Variable,Main Cooling Coil 1 Water Inlet Node,System Node Mass Flow Rate,hourly;
   3393 
   3394   Output:Variable,OA Heating Coil 1 Water Inlet Node,System Node Temperature,hourly;
   3395 
   3396   Output:Variable,OA Heating Coil 1 Water Inlet Node,System Node Mass Flow Rate,hourly;
   3397 
   3398   Output:Variable,Main Heating Coil 1 Water Inlet Node,System Node Mass Flow Rate,hourly;
   3399 
   3400   Output:Variable,*,Heating Coil Heating Rate,hourly;
   3401 
   3402   Output:Variable,*,Cooling Coil Total Cooling Rate,hourly;
   3403 
   3404   Output:Variable,*,Cooling Coil Sensible Cooling Rate,hourly;
   3405 
   3406   Output:Variable,*,Plant Supply Side Cooling Demand Rate,hourly;
   3407 
   3408   Output:Variable,*,Plant Supply Side Heating Demand Rate,hourly;
   3409 
   3410   Output:Variable,*,Boiler Gas Rate,hourly;
   3411 
   3412   Output:Variable,*,Boiler Heating Rate,hourly;
   3413 
   3414   Output:Variable,*,Chiller Electric Power,hourly;
   3415 
   3416   Output:Variable,*,Chiller Evaporator Cooling Rate,hourly;
   3417 
   3418   Output:Variable,*,Chiller Evaporator Inlet Temperature,hourly;
   3419 
   3420   Output:Variable,*,Chiller Evaporator Outlet Temperature,hourly;
   3421 
   3422   Output:Variable,*,Chiller Evaporator Mass Flow Rate,hourly;
   3423 
   3424   Output:Variable,*,Chiller Condenser Heat Transfer Rate,hourly;
   3425 
   3426   Output:Variable,*,Pump Mass Flow Rate,hourly;
   3427 
   3428   Output:Variable,*,Pump Outlet Temperature,hourly;
   3429 
   3430   Output:VariableDictionary,Regular;
   3431 
   3432   Output:Meter:MeterFileOnly,Electricity:Facility,monthly;
   3433 
   3434   Output:Meter:MeterFileOnly,Electricity:Building,monthly;
   3435 
   3436   Output:Meter:MeterFileOnly,InteriorLights:Electricity,monthly;
   3437 
   3438   Output:Meter:MeterFileOnly,Electricity:HVAC,monthly;
   3439 
   3440   Output:Meter:MeterFileOnly,Electricity:Plant,monthly;
   3441 
   3442   Output:Meter:MeterFileOnly,Gas:Facility,monthly;
   3443 
   3444   Output:Meter:MeterFileOnly,Gas:Plant,monthly;
   3445 
   3446   Output:Meter:MeterFileOnly,Electricity:Facility,runperiod;
   3447 
   3448   Output:Meter:MeterFileOnly,Electricity:Building,runperiod;
   3449 
   3450   Output:Meter:MeterFileOnly,InteriorLights:Electricity,runperiod;
   3451 
   3452   Output:Meter:MeterFileOnly,Electricity:HVAC,runperiod;
   3453 
   3454   Output:Meter:MeterFileOnly,Electricity:Plant,runperiod;
   3455 
   3456   Output:Meter:MeterFileOnly,Gas:Facility,runperiod;
   3457 
   3458   Output:Meter:MeterFileOnly,Gas:Plant,runperiod;
   3459 
   3460   Output:Meter:MeterFileOnly,MyGeneralLights,monthly;
   3461 
   3462   Output:Meter:MeterFileOnly,MyGeneralLights,runperiod;
   3463 
   3464   Output:Meter:MeterFileOnly,MyBuildingElectric,monthly;
   3465 
   3466   Output:Meter:MeterFileOnly,MyBuildingElectric,runperiod;
   3467 
   3468   Output:Meter:MeterFileOnly,MyBuildingOther,monthly;
   3469 
   3470   Output:Meter:MeterFileOnly,MyBuildingOther,runperiod;
   3471 
   3472 ! The following custom meters are set up to illustrate the capabilities
   3473 ! of custom meters.
   3474 ! Custom Meter "MyGeneralLights" duplicates the InteriorLights:Electricity meter.
   3475 ! Custom Meter "MyBuildingElectric" duplicates the Electricity:Building meter (by specifying that meter).
   3476 ! Custom Meter (Decrement) "MyBuildingOther" uses Electricity:Building as its source meter
   3477 !   and subtracts out the values for MyGeneralLights (aka InteriorLights:Electricity).  The
   3478 !   resultant value for MyBuildingOther should be equal to the value for the meters
   3479 !   Electricity:Building - InteriorLights:Electricity (aka MyGeneralLights)
   3480 
   3481   Meter:Custom,
   3482     MyGeneralLights,         !- Name
   3483     Electricity,             !- Fuel Type
   3484     SPACE1-1 Lights 1,       !- Key Name 1
   3485     Lights Electric Energy,  !- Output Variable or Meter Name 1
   3486     SPACE2-1 Lights 1,       !- Key Name 2
   3487     Lights Electric Energy,  !- Output Variable or Meter Name 2
   3488     SPACE3-1 Lights 1,       !- Key Name 3
   3489     Lights Electric Energy,  !- Output Variable or Meter Name 3
   3490     SPACE4-1 Lights 1,       !- Key Name 4
   3491     Lights Electric Energy,  !- Output Variable or Meter Name 4
   3492     SPACE5-1 Lights 1,       !- Key Name 5
   3493     Lights Electric Energy;  !- Output Variable or Meter Name 5
   3494 
   3495   Meter:Custom,
   3496     MyBuildingElectric,      !- Name
   3497     Electricity,             !- Fuel Type
   3498     ,                        !- Key Name 1
   3499     Electricity:Building;    !- Output Variable or Meter Name 1
   3500 
   3501   Meter:CustomDecrement,
   3502     MyBuildingOther,         !- Name
   3503     Electricity,             !- Fuel Type
   3504     Electricity:Building,    !- Source Meter Name
   3505     ,                        !- Key Name 1
   3506     MyGeneralLights;         !- Output Variable or Meter Name 1
   3507 
   3508   Output:Surfaces:Drawing,VRML;
   3509 
   3510   OutputControl:Table:Style,
   3511     HTML;                    !- Column Separator
   3512 
   3513   Output:Table:SummaryReports,
   3514     AllSummary,              !- Report 1 Name
   3515     ZoneComponentLoadSummary;!- Report 2 Name
   3516 
   3517   Output:Surfaces:List,Details;
   3518 
   3519 
  Processing Input Data File (in.idf) -- Complete
  Maximum number of Alpha IDF Args=          29
  Maximum number of Numeric IDF Args=          20
  Number of IDF "Lines"=         381
  Number of Defaulted Fields=          52
  Number of Fields with Defaults=         816
  Number of Autosized Fields=          61
  Number of Autosizable Fields =          87
  Number of Autocalculated Fields=          15
  Number of Autocalculatable Fields =         121
 Getting object=VERSION
 Getting object=HEATBALANCEALGORITHM
 Getting object=TIMESTEP
 Getting object=SIMULATIONCONTROL
 Getting object=OUTPUT:SURFACES:LIST
 Getting object=OUTPUT:SURFACES:DRAWING
 Getting object=OUTPUT:VARIABLEDICTIONARY
 Getting object=BRANCH
 Getting object=CURVE:QUADRATIC
 Getting object=NODELIST
 Getting object=BRANCHLIST
 Getting object=DESIGNSPECIFICATION:OUTDOORAIR
 Getting object=SIZING:PARAMETERS
 Getting object=ZONE
 Getting object=SIZING:ZONE
 Getting object=SIZING:SYSTEM
 Getting object=SIZING:PLANT
 Getting object=OUTPUT:TABLE:SUMMARYREPORTS
 Getting object=OUTPUT:VARIABLE
 Getting object=SIZINGPERIOD:DESIGNDAY
 Getting object=RUNPERIOD
 Getting object=SITE:LOCATION
 Getting object=SITE:GROUNDTEMPERATURE:BUILDINGSURFACE
 Getting object=SCHEDULE:COMPACT
  Processing Schedule Input -- Start
 Getting object=SCHEDULETYPELIMITS
  Processing Schedule Input -- Complete
 Getting object=BUILDING
 Getting object=SURFACECONVECTIONALGORITHM:INSIDE
 Getting object=SURFACECONVECTIONALGORITHM:OUTSIDE
 Getting object=MATERIAL
 Getting object=MATERIAL:NOMASS
 Getting object=MATERIAL:AIRGAP
 Getting object=WINDOWMATERIAL:GLAZING
 Getting object=WINDOWMATERIAL:GAS
 Getting object=CONSTRUCTION
 Getting object=GLOBALGEOMETRYRULES
 Getting object=BUILDINGSURFACE:DETAILED
 Getting object=FENESTRATIONSURFACE:DETAILED
 Getting object=SHADING:ZONE:DETAILED
 Getting object=PEOPLE
 Getting object=LIGHTS
 Getting object=ELECTRICEQUIPMENT
 Getting object=ZONEINFILTRATION:DESIGNFLOWRATE
 Getting object=OUTDOORAIR:NODELIST
 Getting object=OUTDOORAIR:NODE
 Getting object=ZONECONTROL:THERMOSTAT
 Getting object=THERMOSTATSETPOINT:SINGLEHEATING
 Getting object=THERMOSTATSETPOINT:SINGLECOOLING
 Getting object=THERMOSTATSETPOINT:DUALSETPOINT
 Getting object=SETPOINTMANAGER:SCHEDULED
 Getting object=SETPOINTMANAGER:MIXEDAIR
 Getting object=PLANTLOOP
 Getting object=AVAILABILITYMANAGER:SCHEDULED
 Getting object=AVAILABILITYMANAGER:LOWTEMPERATURETURNOFF
 Getting object=AVAILABILITYMANAGERASSIGNMENTLIST
 Getting object=CONNECTORLIST
 Getting object=CONNECTOR:SPLITTER
 Getting object=CONNECTOR:MIXER
 Getting object=ZONEHVAC:EQUIPMENTCONNECTIONS
 Getting object=ZONEHVAC:EQUIPMENTLIST
 Getting object=AIRLOOPHVAC:SUPPLYPATH
 Getting object=AIRLOOPHVAC:RETURNPATH
 Getting object=AIRLOOPHVAC:ZONESPLITTER
 Getting object=ZONEHVAC:AIRDISTRIBUTIONUNIT
 Getting object=AIRTERMINAL:SINGLEDUCT:VAV:REHEAT
 Getting object=COIL:HEATING:WATER
 Getting object=COIL:COOLING:WATER
 Getting object=ZONEHVAC:AIRLOOPCONNECTION
 Getting object=AIRLOOPHVAC:RETURNPLENUM
 Getting object=AIRLOOPHVAC
 Getting object=AIRLOOPHVAC:CONTROLLERLIST
 Getting object=AIRLOOPHVAC:OUTDOORAIRSYSTEM
 Getting object=AIRLOOPHVAC:OUTDOORAIRSYSTEM:EQUIPMENTLIST
 Getting object=OUTDOORAIR:MIXER
 Getting object=CONTROLLER:WATERCOIL
 Getting object=FAN:VARIABLEVOLUME
 Getting object=CONTROLLER:OUTDOORAIR
 Getting object=PIPE:ADIABATIC
 Getting object=BOILER:HOTWATER
 Getting object=CHILLER:ELECTRIC
 Getting object=PLANTEQUIPMENTOPERATIONSCHEMES
 Getting object=PLANTEQUIPMENTOPERATION:COOLINGLOAD
 Getting object=PLANTEQUIPMENTOPERATION:HEATINGLOAD
 Getting object=PLANTEQUIPMENTLIST
 Getting object=PUMP:VARIABLESPEED
 Getting object=METER:CUSTOM
 Getting object=METER:CUSTOMDECREMENT
 Getting object=OUTPUT:METER:METERFILEONLY
 Getting object=OUTPUTCONTROL:TABLE:STYLE
 MonthlyInputCount=           0
 sizeMonthlyInput=           0
 MonthlyFieldSetInputCount=           0
 sizeMonthlyFieldSetInput=           0
 MonthlyTablesCount=           0
 MonthlyColumnsCount=           0
 sizeReportName=         100
 numReportName=          13
 sizeSubTable=         100
 numSubTable=          62
 sizeColumnTag=         400
 numColumnTag=         389
 sizeTableEntry=        1600
 numTableEntry=        1580
 sizeCompSizeTableEntry=         200
 numCompSizeTableEntry=         103
 NumOfRVariable=        5730
 NumOfRVariable(Total)=        5730
 NumOfRVariable(Actual)=         218
 NumOfRVariable(Summed)=          59
 NumOfRVariable(Meter)=          53
 NumOfIVariable=         259
 NumOfIVariable(Total)=         259
 NumOfIVariable(Actual)=           0
 NumOfIVariable(Summed)=           0
 MaxRVariable=        1000
 MaxIVariable=          10
 NumEnergyMeters=          82
 NumVarMeterArrays=          53
 maxUniqueKeyCount=        1500
 maxNumberOfFigures=           3
 MAXHCArrayBounds=          10
 MaxVerticesPerSurface=           4
 NumReportList=         500
 InstMeterCacheSize=        1000
 ClippingAlgorithm=SutherlandHodgman
 MonthlyFieldSetInputCount=           0
 NumConsideredOutputVariables=          66
 MaxConsideredOutputVariables=          66
 numActuatorsUsed=           0
 numEMSActuatorsAvailable=           0
 maxEMSActuatorsAvailable=           0
 numInternalVariablesUsed=           0
 numEMSInternalVarsAvailable=           2
 maxEMSInternalVarsAvailable=        1000
 NumOfNodeConnections=         242
 MaxNumOfNodeConnections=        1000
