Program Version,EnergyPlus, Version 8.2.1-27b6d52898, YMD=2014.10.07 20:26
! <Version>, Version ID
 Version, 8.2
! <Timesteps per Hour>, #TimeSteps, Minutes per TimeStep {minutes}
 Timesteps per Hour,  6, 10
! <System Convergence Limits>, Minimum System TimeStep {minutes}, Max HVAC Iterations,  Minimum Plant Iterations, Maximum Plant Iterations
 System Convergence Limits, 1, 20, 2, 8
! <Simulation Control>, Do Zone Sizing, Do System Sizing, Do Plant Sizing, Do Design Days, Do Weather Simulation
 Simulation Control, No, No, No, Yes, No
! <Output Reporting Tolerances>, Tolerance for Time Heating Setpoint Not Met, Tolerance for Zone Cooling Setpoint Not Met Time
 Output Reporting Tolerances, 0.200, 0.200, 
! <Site:GroundTemperature:BuildingSurface>, Months From Jan to Dec {C}
 Site:GroundTemperature:BuildingSurface,  20.03,  20.03,  20.13,  20.30,  20.43,  20.52,  20.62,  20.77,  20.78,  20.55,  20.44,  20.20
! <Site:GroundTemperature:FCfactorMethod>, Months From Jan to Dec {C}
 Site:GroundTemperature:FCfactorMethod,  -1.89,  -3.06,  -0.99,   2.23,  10.68,  17.20,  21.60,  22.94,  20.66,  15.60,   8.83,   2.56
! <Site:GroundTemperature:Shallow>, Months From Jan to Dec {C}
 Site:GroundTemperature:Shallow,  13.00,  13.00,  13.00,  13.00,  13.00,  13.00,  13.00,  13.00,  13.00,  13.00,  13.00,  13.00
! <Site:GroundTemperature:Deep>, Months From Jan to Dec {C}
 Site:GroundTemperature:Deep,  16.00,  16.00,  16.00,  16.00,  16.00,  16.00,  16.00,  16.00,  16.00,  16.00,  16.00,  16.00
! <Site:GroundReflectance>, Months From Jan to Dec {dimensionless}
 Site:GroundReflectance,  0.20,  0.20,  0.20,  0.20,  0.20,  0.20,  0.20,  0.20,  0.20,  0.20,  0.20,  0.20
! <Site:GroundReflectance:SnowModifier>, Normal, Daylighting {dimensionless}
 Site:GroundReflectance:SnowModifier,   1.000,   1.000
! <Site:GroundReflectance:Snow>, Months From Jan to Dec {dimensionless}
 Site:GroundReflectance:Snow,  0.20,  0.20,  0.20,  0.20,  0.20,  0.20,  0.20,  0.20,  0.20,  0.20,  0.20,  0.20
! <Site:GroundReflectance:Snow:Daylighting>, Months From Jan to Dec {dimensionless}
 Site:GroundReflectance:Snow:Daylighting,  0.20,  0.20,  0.20,  0.20,  0.20,  0.20,  0.20,  0.20,  0.20,  0.20,  0.20,  0.20
! <Environment:Weather Station>,Wind Sensor Height Above Ground {m},Wind Speed Profile Exponent {},Wind Speed Profile Boundary Layer Thickness {m},Air Temperature Sensor Height Above Ground {m},Wind Speed Modifier Coefficient [Internal],Temperature Modifier Coefficient [Internal]
Environment:Weather Station,10.000,0.140,270.000,1.500,1.586,9.750E-003
! <Site:Location>, Location Name, Latitude {N+/S- Deg}, Longitude {E+/W- Deg},  Time Zone Number {GMT+/-}, Elevation {m},  Standard Pressure at Elevation {Pa}, Standard RhoAir at Elevation
Site:Location,Chicago Ohare Intl Ap IL USA TMY3 WMO#=725300,41.98,-87.92,-6.00,201.00,98934,1.1759
! <Building Information>, Building Name,North Axis {deg},Terrain,  Loads Convergence Tolerance Value,Temperature Convergence Tolerance Value,  Solar Distribution,Maximum Number of Warmup Days,Minimum Number of Warmup Days
 Building Information,NONE,0.000,Suburbs,4.00000E-002,0.40000,FullInteriorAndExterior,25,6
! <Inside Convection Algorithm>, Algorithm {Simple | TARP | CeilingDiffuser | AdaptiveConvectionAlgorithm}
Inside Convection Algorithm,TARP
! <Outside Convection Algorithm>, Algorithm {SimpleCombined | TARP | MoWitt | DOE-2 | AdaptiveConvectionAlgorithm}
Outside Convection Algorithm,DOE-2
! <Sky Radiance Distribution>, Value {Anisotropic}
Sky Radiance Distribution,Anisotropic
! <Zone Air Solution Algorithm>, Value {ThirdOrderBackwardDifference | AnalyticalSolution | EulerMethod}
 Zone Air Solution Algorithm, ThirdOrderBackwardDifference
! <Zone Air Contaminant Balance Simulation>, Simulation {Yes/No}, Carbon Dioxide Concentration
 Zone Air Carbon Dioxide Balance Simulation, No,N/A
! <Zone Air Contaminant Balance Simulation>, Simulation {Yes/No}, Generic Contaminant Concentration
 Zone Air Generic Contaminant Balance Simulation, No,N/A
! <Zone Air Mass Flow Balance Simulation>, Simulation {Yes/No}
 Zone Air Mass Flow Balance Simulation, No
! <Environment:Site Atmospheric Variation>,Wind Speed Profile Exponent {},Wind Speed Profile Boundary Layer Thickness {m},Air Temperature Gradient Coefficient {K/m}
Environment:Site Atmospheric Variation,0.220,370.000,6.500000E-003
! <SurfaceGeometry>,Starting Corner,Vertex Input Direction,Coordinate System,Daylight Reference Point Coordinate System,Rectangular (Simple) Surface Coordinate System
 Surface Geometry,UpperLeftCorner,Counterclockwise,WorldCoordinateSystem,RelativeCoordinateSystem,RelativeToZoneOrigin
! <Surface Heat Transfer Algorithm>, Value {CTF - ConductionTransferFunction | EMPD - MoisturePenetrationDepthConductionTransferFunction | CondFD - ConductionFiniteDifference | HAMT - CombinedHeatAndMoistureFiniteElement} - Description,Inside Surface Max Temperature Limit{C}, Surface Convection Coefficient Lower Limit {W/m2-K}, Surface Convection Coefficient Upper Limit {W/m2-K}
Surface Heat Transfer Algorithm, CTF - ConductionTransferFunction,200,0.10,1000.0
! <Shading Summary>, Number of Fixed Detached Shades, Number of Building Detached Shades, Number of Attached Shades
 Shading Summary,0,0,0
! <Zone Summary>, Number of Zones, Number of Zone Surfaces, Number of SubSurfaces
 Zone Summary,3,21,1
! <Zone Information>,Zone Name,North Axis {deg},Origin X-Coordinate {m},Origin Y-Coordinate {m},Origin Z-Coordinate {m},Centroid X-Coordinate {m},Centroid Y-Coordinate {m},Centroid Z-Coordinate {m},Type,Zone Multiplier,Zone List Multiplier,Minimum X {m},Maximum X {m},Minimum Y {m},Maximum Y {m},Minimum Z {m},Maximum Z {m},Ceiling Height {m},Volume {m3},Zone Inside Convection Algorithm {Simple-Detailed-CeilingDiffuser-TrombeWall},Zone Outside Convection Algorithm {Simple-Detailed-Tarp-MoWitt-DOE-2-BLAST}, Floor Area {m2},Exterior Gross Wall Area {m2},Exterior Net Wall Area {m2},Exterior Window Area {m2}, Number of Surfaces, Number of SubSurfaces, Number of Shading SubSurfaces,  Part of Total Building Area
 Zone Information, WEST ZONE,0.0,0.00,0.00,0.00,3.05,3.05,1.52,1,1,1,0.00,6.10,0.00,6.10,0.00,3.05,3.05,113.27,TARP,DOE-2,37.16,37.16,27.16,10.00,6,1,0,Yes
 Zone Information, EAST ZONE,0.0,0.00,0.00,0.00,9.14,3.05,1.52,1,1,1,6.10,12.19,0.00,6.10,0.00,3.05,3.05,113.27,TARP,DOE-2,37.16,46.45,46.45,0.00,7,0,0,Yes
 Zone Information, NORTH ZONE,0.0,0.00,0.00,0.00,4.57,9.14,1.52,1,1,1,0.00,9.14,6.10,12.19,0.00,3.05,3.05,169.90,TARP,DOE-2,55.74,65.03,65.03,0.00,7,0,0,Yes
! <Zone Internal Gains/Equipment Information - Nominal>,Zone Name, Floor Area {m2},# Occupants,Area per Occupant {m2/person},Occupant per Area {person/m2},Interior Lighting {W/m2},Electric Load {W/m2},Gas Load {W/m2},Other Load {W/m2},Hot Water Eq {W/m2},Steam Equipment {W/m2},Sum Loads per Area {W/m2},Outdoor Controlled Baseboard Heat
 Zone Internal Gains, WEST ZONE,37.16,3.0,12.387,8.073E-002,0.000,78.812,0.000,0.000,0.000,0.000,78.812,No
 Zone Internal Gains, EAST ZONE,37.16,3.0,12.387,8.073E-002,39.406,39.406,0.000,0.000,0.000,0.000,78.812,No
 Zone Internal Gains, NORTH ZONE,55.74,4.0,13.935,7.176E-002,15.762,52.541,0.000,0.000,0.000,0.000,68.304,No
! <People Internal Gains - Nominal>,Name,Schedule Name,Zone Name,Zone Floor Area {m2},# Zone Occupants,Number of People {},People/Floor Area {person/m2},Floor Area per person {m2/person},Fraction Radiant,Fraction Convected,Sensible Fraction Calculation,Activity level,ASHRAE 55 Warnings,Carbon Dioxide Generation Rate,Nominal Minimum Number of People,Nominal Maximum Number of People,MRT Calculation Type,Work Efficiency, Clothing Insulation Calculation Method,Clothing Insulation Calculation Method Schedule,Clothing,Air Velocity,Fanger Calculation,Pierce Calculation,KSU Calculation
 People Internal Gains, WEST ZONE,BLDG SCH   1,WEST ZONE,37.16,3.0,3.0,8.073E-002,12.387,0.300,0.700,AutoCalculate,ACTIVITY SCH,No,3.8200E-008,0,3,Zone Averaged,WORK EFF SCH,Clothing Insulation Schedule,N/A,CLOTHING SCH,AIR VELO SCH,Yes,No,No
 People Internal Gains, EAST ZONE,BLDG SCH   1,EAST ZONE,37.16,3.0,3.0,8.073E-002,12.387,0.300,0.700,AutoCalculate,ACTIVITY SCH,No,3.8200E-008,0,3,Zone Averaged,WORK EFF SCH,Clothing Insulation Schedule,N/A,CLOTHING SCH,AIR VELO SCH,Yes,No,No
 People Internal Gains, NORTH ZONE,BLDG SCH   1,NORTH ZONE,55.74,4.0,4.0,7.176E-002,13.935,0.300,0.700,AutoCalculate,ACTIVITY SCH,No,3.8200E-008,0,4,Zone Averaged,WORK EFF SCH,Clothing Insulation Schedule,N/A,CLOTHING SCH,AIR VELO SCH,Yes,No,No
! <Lights Internal Gains - Nominal>,Name,Schedule Name,Zone Name,Zone Floor Area {m2},# Zone Occupants,Lighting Level {W},Lights/Floor Area {W/m2},Lights per person {W/person},Fraction Return Air,Fraction Radiant,Fraction Short Wave,Fraction Convected,Fraction Replaceable,End-Use Category,Nominal Minimum Lighting Level {W},Nominal Maximum Lighting Level {W}
 Lights Internal Gains, EAST ZONE LIGHTS 1,BLDG SCH   3,EAST ZONE,37.16,3.0,1464.375,39.406,488.125,0.000,0.200,0.200,0.600,0.000,GeneralLights,73.219,1464.375
 Lights Internal Gains, NORTH ZONE LIGHTS 1,BLDG SCH   3,NORTH ZONE,55.74,4.0,878.625,15.762,219.656,0.000,0.200,0.200,0.600,0.000,GeneralLights,43.931,878.625
! <ElectricEquipment Internal Gains - Nominal>,Name,Schedule Name,Zone Name,Zone Floor Area {m2},# Zone Occupants,Equipment Level {W},Equipment/Floor Area {W/m2},Equipment per person {W/person},Fraction Latent,Fraction Radiant,Fraction Lost,Fraction Convected,End-Use SubCategory,Nominal Minimum Equipment Level {W},Nominal Maximum Equipment Level {W}
 ElectricEquipment Internal Gains, WEST ZONE ELECEQ 1,BLDG SCH   2,WEST ZONE,37.16,3.0,2928.751,78.812,976.250,0.000,0.300,0.000,0.700,General,0.000,2928.751
 ElectricEquipment Internal Gains, EAST ZONE ELECEQ 1,BLDG SCH   2,EAST ZONE,37.16,3.0,1464.375,39.406,488.125,0.000,0.300,0.000,0.700,General,0.000,1464.375
 ElectricEquipment Internal Gains, NORTH ZONE ELECEQ 1,BLDG SCH   2,NORTH ZONE,55.74,4.0,2928.751,52.541,732.188,0.000,0.300,0.000,0.700,General,0.000,2928.751
! <Shadowing/Sun Position Calculations> [Annual Simulations], Calculation Method,Value {days}, Allowable Number Figures in Shadow Overlap {}, Polygon Clipping Algorithm, Sky Diffuse Modeling Algorithm
Shadowing/Sun Position Calculations,AverageOverDaysInFrequency,20,15000,SutherlandHodgman,SimpleSkyDiffuseModeling
! <Infiltration Airflow Stats - Nominal>,Name,Schedule Name,Zone Name, Zone Floor Area {m2}, # Zone Occupants,Design Volume Flow Rate {m3/s},Volume Flow Rate/Floor Area {m3/s/m2},Volume Flow Rate/Exterior Surface Area {m3/s/m2},ACH - Air Changes per Hour,Equation A - Constant Term Coefficient {},Equation B - Temperature Term Coefficient {1/C},Equation C - Velocity Term Coefficient {s/m}, Equation D - Velocity Squared Term Coefficient {s2/m2}
 ZoneInfiltration Airflow Stats, WEST ZONE INFIL 1,ON,WEST ZONE,37.16,3.0,1.000E-002,2.691E-004,1.345E-004,0.318,1.000,0.000,0.000,0.000
 ZoneInfiltration Airflow Stats, EAST ZONE INFIL 1,ON,EAST ZONE,37.16,3.0,1.000E-002,2.691E-004,1.196E-004,0.318,1.000,0.000,0.000,0.000
 ZoneInfiltration Airflow Stats, NORTH ZONE INFIL 1,ON,NORTH ZONE,55.74,4.0,1.500E-002,2.691E-004,1.242E-004,0.318,1.000,0.000,0.000,0.000
! <AirFlow Model>, Simple
 AirFlow Model, Simple
! <RoomAir Model>, Zone Name, Mixing/Mundt/UCSDDV/UCSDCV/UCSDUFI/UCSDUFE/User Defined
RoomAir Model,WEST ZONE,Mixing/Well-Stirred
RoomAir Model,EAST ZONE,Mixing/Well-Stirred
RoomAir Model,NORTH ZONE,Mixing/Well-Stirred
! <AirflowNetwork Model:Control>, No Multizone or Distribution/Multizone with Distribution/Multizone without Distribution/Multizone with Distribution only during Fan Operation
AirflowNetwork Model:Control,NoMultizoneOrDistribution
! <Zone Volume Capacitance Multiplier>, Sensible Heat Capacity Multiplier, Moisture Capacity Multiplier, Carbon Dioxide Capacity Multiplier, Generic Contaminant Capacity Multiplier
Zone Volume Capacitance Multiplier,   1.000 ,   1.000,   1.000,   1.000
! <Component Sizing Information>, Component Type, Component Name, Input Field Description, Value
 Component Sizing Information, ZoneHVAC:LowTemperatureRadiant:VariableFlow, WEST ZONE RADIANT FLOOR, User-Specified Maximum Hot Water Flow [m3/s], 4.00000E-005
 Component Sizing Information, ZoneHVAC:LowTemperatureRadiant:VariableFlow, WEST ZONE RADIANT FLOOR, User-Specified Maximum Cold Water Flow [m3/s], 4.00000E-005
 Component Sizing Information, ZoneHVAC:LowTemperatureRadiant:VariableFlow, WEST ZONE RADIANT FLOOR, User-Specified Hydronic Tubing Length [m], 400.00000
 Component Sizing Information, ZoneHVAC:LowTemperatureRadiant:VariableFlow, EAST ZONE RADIANT FLOOR, User-Specified Maximum Hot Water Flow [m3/s], 8.00000E-005
 Component Sizing Information, ZoneHVAC:LowTemperatureRadiant:VariableFlow, EAST ZONE RADIANT FLOOR, User-Specified Maximum Cold Water Flow [m3/s], 8.00000E-005
 Component Sizing Information, ZoneHVAC:LowTemperatureRadiant:VariableFlow, EAST ZONE RADIANT FLOOR, User-Specified Hydronic Tubing Length [m], 400.00000
 Component Sizing Information, ZoneHVAC:LowTemperatureRadiant:VariableFlow, NORTH ZONE RADIANT FLOOR, User-Specified Maximum Hot Water Flow [m3/s], 1.00000E-004
 Component Sizing Information, ZoneHVAC:LowTemperatureRadiant:VariableFlow, NORTH ZONE RADIANT FLOOR, User-Specified Maximum Cold Water Flow [m3/s], 1.00000E-004
 Component Sizing Information, ZoneHVAC:LowTemperatureRadiant:VariableFlow, NORTH ZONE RADIANT FLOOR, User-Specified Hydronic Tubing Length [m], 400.00000
 Component Sizing Information, Chiller:Electric, BIG CHILLER, User-Specified Nominal Capacity [W], 45000.00000
 Component Sizing Information, Chiller:Electric, BIG CHILLER, User-Specified Design Chilled Water Flow Rate [m3/s], 3.90000E-003
 Component Sizing Information, Chiller:Electric, BIG CHILLER, User-Specified Design Condenser Water Flow Rate [m3/s], 1.10000E-003
 Component Sizing Information, Chiller:Electric, BIG CHILLER, User-Specified Nominal Capacity [W], 45000.00000
 Component Sizing Information, Chiller:Electric, BIG CHILLER, User-Specified Design Chilled Water Flow Rate [m3/s], 3.90000E-003
 Component Sizing Information, Chiller:Electric, BIG CHILLER, User-Specified Design Condenser Water Flow Rate [m3/s], 1.10000E-003
 Component Sizing Information, Chiller:Electric, BIG CHILLER, User-Specified Nominal Capacity [W], 45000.00000
 Component Sizing Information, Chiller:Electric, BIG CHILLER, User-Specified Design Chilled Water Flow Rate [m3/s], 3.90000E-003
 Component Sizing Information, Chiller:Electric, BIG CHILLER, User-Specified Design Condenser Water Flow Rate [m3/s], 1.10000E-003
 Component Sizing Information, Chiller:Electric, BIG CHILLER, User-Specified Nominal Capacity [W], 45000.00000
 Component Sizing Information, Chiller:Electric, BIG CHILLER, User-Specified Design Chilled Water Flow Rate [m3/s], 3.90000E-003
 Component Sizing Information, Chiller:Electric, BIG CHILLER, User-Specified Design Condenser Water Flow Rate [m3/s], 1.10000E-003
 Component Sizing Information, Chiller:Electric, BIG CHILLER, User-Specified Nominal Capacity [W], 45000.00000
 Component Sizing Information, Chiller:Electric, BIG CHILLER, User-Specified Design Chilled Water Flow Rate [m3/s], 3.90000E-003
 Component Sizing Information, Chiller:Electric, BIG CHILLER, User-Specified Design Condenser Water Flow Rate [m3/s], 1.10000E-003
 Component Sizing Information, Chiller:Electric, BIG CHILLER, User-Specified Nominal Capacity [W], 45000.00000
 Component Sizing Information, Chiller:Electric, BIG CHILLER, User-Specified Design Chilled Water Flow Rate [m3/s], 3.90000E-003
 Component Sizing Information, Chiller:Electric, BIG CHILLER, User-Specified Design Condenser Water Flow Rate [m3/s], 1.10000E-003
 Component Sizing Information, Chiller:Electric, BIG CHILLER, User-Specified Nominal Capacity [W], 45000.00000
 Component Sizing Information, Chiller:Electric, BIG CHILLER, User-Specified Design Chilled Water Flow Rate [m3/s], 3.90000E-003
 Component Sizing Information, Chiller:Electric, BIG CHILLER, User-Specified Design Condenser Water Flow Rate [m3/s], 1.10000E-003
 Component Sizing Information, Chiller:Electric, BIG CHILLER, User-Specified Nominal Capacity [W], 45000.00000
 Component Sizing Information, Chiller:Electric, BIG CHILLER, User-Specified Design Chilled Water Flow Rate [m3/s], 3.90000E-003
 Component Sizing Information, Chiller:Electric, BIG CHILLER, User-Specified Design Condenser Water Flow Rate [m3/s], 1.10000E-003
 Component Sizing Information, PlantLoop, CHILLED WATER LOOP, Plant Loop Volume [m3], 2.92500
 Component Sizing Information, PlantLoop, HOT WATER LOOP, Plant Loop Volume [m3], 3.22500
 Component Sizing Information, Chiller:ConstantCOP, LITTLE CHILLER, User-Specified Nominal Capacity [W], 25000.00000
 Component Sizing Information, Chiller:ConstantCOP, LITTLE CHILLER, User-Specified Design Chilled Water Flow Rate [m3/s], 3.90000E-003
 Component Sizing Information, Chiller:ConstantCOP, LITTLE CHILLER, User-Specified Design Condenser Water Flow Rate [m3/s], 1.10000E-003
 Component Sizing Information, Chiller:Electric, BIG CHILLER, User-Specified Nominal Capacity [W], 45000.00000
 Component Sizing Information, Chiller:Electric, BIG CHILLER, User-Specified Design Chilled Water Flow Rate [m3/s], 3.90000E-003
 Component Sizing Information, Chiller:Electric, BIG CHILLER, User-Specified Design Condenser Water Flow Rate [m3/s], 1.10000E-003
 Component Sizing Information, Chiller:Electric, BIG CHILLER, User-Specified Nominal Capacity [W], 45000.00000
 Component Sizing Information, Chiller:Electric, BIG CHILLER, User-Specified Design Chilled Water Flow Rate [m3/s], 3.90000E-003
 Component Sizing Information, Chiller:Electric, BIG CHILLER, User-Specified Design Condenser Water Flow Rate [m3/s], 1.10000E-003
 Component Sizing Information, Chiller:Electric, BIG CHILLER, User-Specified Nominal Capacity [W], 45000.00000
 Component Sizing Information, Chiller:Electric, BIG CHILLER, User-Specified Design Chilled Water Flow Rate [m3/s], 3.90000E-003
 Component Sizing Information, Chiller:Electric, BIG CHILLER, User-Specified Design Condenser Water Flow Rate [m3/s], 1.10000E-003
 Component Sizing Information, CondenserLoop, CHILLED WATER CONDENSER LOOP, Condenser Loop Volume [m3], 1.65000
! <Environment>,Environment Name,Environment Type, Start Date, End Date, Start DayOfWeek, Duration {#days}, Source:Start DayOfWeek,  Use Daylight Saving, Use Holidays, Apply Weekend Holiday Rule,  Use Rain Values, Use Snow Values
! <Environment:Special Days>, Special Day Name, Special Day Type, Source, Start Date, Duration {#days}
! <Environment:Daylight Saving>, Daylight Saving Indicator, Source, Start Date, End Date
! <Environment:WarmupDays>, NumberofWarmupDays
Environment,CHICAGO ANN HTG 99% CONDNS DB,SizingPeriod:DesignDay,01/21,01/21,WinterDesignDay,1,N/A,N/A,N/A,N/A,N/A,N/A
Environment:Daylight Saving,No,SizingPeriod:DesignDay
! <Environment:Design Day Data>, Max Dry-Bulb Temp {C}, Temp Range {dC}, Temp Range Ind Type, Hum Ind Value at Max Temp, Hum Ind Type,Pressure {Pa}, Wind Direction {deg CW from N}, Wind Speed {m/s}, Clearness, Rain, Snow
! <Environment:Design_Day_Misc>,DayOfYear,ASHRAE A Coeff,ASHRAE B Coeff,ASHRAE C Coeff,Solar Constant-Annual Variation,Eq of Time {minutes}, Solar Declination Angle {deg}, Solar Model
Environment:Design Day Data,-17.30,0.00,DefaultMultipliers,99063,270,4.9,0.00,No,No
Environment:Design_Day_Misc, 21,1229.0,0.1415,5.7310E-002,1.0,-11.15,-20.1,ASHRAEClearSky
Environment:WarmupDays,  6
! <Warmup Convergence Information>,Zone Name,Environment Type/Name,Average Warmup Temperature Difference {deltaC},Std Dev Warmup Temperature Difference {deltaC},Max Temperature Pass/Fail Convergence,Min Temperature Pass/Fail Convergence,Average Warmup Load Difference {W},Std Dev Warmup Load Difference {W},Heating Load Pass/Fail Convergence,Cooling Load Pass/Fail Convergence
 Warmup Convergence Information,WEST ZONE,SizingPeriod: CHICAGO ANN HTG 99% CONDNS DB,9.3004723564E-002,0.3570849849,Pass,Pass,0.0000000000,0.0000000000,Pass,Pass
 Warmup Convergence Information,EAST ZONE,SizingPeriod: CHICAGO ANN HTG 99% CONDNS DB,9.4371318013E-002,0.2307610978,Pass,Pass,0.0000000000,0.0000000000,Pass,Pass
 Warmup Convergence Information,NORTH ZONE,SizingPeriod: CHICAGO ANN HTG 99% CONDNS DB,9.2319162429E-002,0.2548046612,Pass,Pass,0.0000000000,0.0000000000,Pass,Pass
Environment,CHICAGO ANN CLG 1% CONDNS DB=>MWB,SizingPeriod:DesignDay,07/21,07/21,SummerDesignDay,1,N/A,N/A,N/A,N/A,N/A,N/A
Environment:Daylight Saving,No,SizingPeriod:DesignDay
Environment:Design Day Data,31.50,10.70,DefaultMultipliers,99063,230,5.3,1.00,No,No
Environment:Design_Day_Misc,202,1084.4,0.2082,0.1365,1.0,-6.23,20.6,ASHRAEClearSky
Environment:WarmupDays,  6
 Warmup Convergence Information,WEST ZONE,SizingPeriod: CHICAGO ANN CLG 1% CONDNS DB=>MWB,0.2272521210,0.4268618405,Pass,Pass,0.0000000000,0.0000000000,Pass,Pass
 Warmup Convergence Information,EAST ZONE,SizingPeriod: CHICAGO ANN CLG 1% CONDNS DB=>MWB,0.1581696909,0.3131703207,Pass,Pass,0.0000000000,0.0000000000,Pass,Pass
 Warmup Convergence Information,NORTH ZONE,SizingPeriod: CHICAGO ANN CLG 1% CONDNS DB=>MWB,0.1740887782,0.2802338864,Pass,Pass,0.0000000000,0.0000000000,Pass,Pass
! <Program Control Information:Threads/Parallel Sims>, Threading Supported,Maximum Number of Threads, Env Set Threads (OMP_NUM_THREADS), EP Env Set Threads (EP_OMP_NUM_THREADS), IDF Set Threads, Number of Threads Used (Interior Radiant Exchange), Number Nominal Surfaces, Number Parallel Sims
Program Control:Threads/Parallel Sims, No,1, N/A, N/A, N/A, N/A, N/A, N/A
End of Data
