Program Version,EnergyPlus, Version 8.2.1-27b6d52898, YMD=2014.10.07 20:48
! This file shows details about the branches, nodes, and other
! elements of the flow connections.
! This file is intended for use in "debugging" potential problems
! that may also be detected by the program, but may be more easily
! identified by "eye".
! This file is also intended to support software which draws a
! schematic diagram of the HVAC system.
! ===============================================================
! #Nodes,<Number of Unique Nodes>
 #Nodes,68
! <Node>,<NodeNumber>,<Node Name>,<Node Fluid Type>,<# Times Node Referenced After Definition>
 Node,1,CW SUPPLY OUTLET NODE,Water,5
 Node,2,HW SUPPLY OUTLET NODE,Water,5
 Node,3,CW DEMAND INLET NODE,Water,2
 Node,4,CW DEMAND ENTRANCE PIPE OUTLET NODE,Water,1
 Node,5,ZONE 1 COOLING WATER INLET NODE,Water,1
 Node,6,ZONE 1 COOLING WATER OUTLET NODE,Water,1
 Node,7,ZONE 2 COOLING WATER INLET NODE,Water,1
 Node,8,ZONE 2 COOLING WATER OUTLET NODE,Water,1
 Node,9,ZONE 3 COOLING WATER INLET NODE,Water,1
 Node,10,ZONE 3 COOLING WATER OUTLET NODE,Water,1
 Node,11,CW DEMAND BYPASS INLET NODE,Water,1
 Node,12,CW DEMAND BYPASS OUTLET NODE,Water,1
 Node,13,CW DEMAND EXIT PIPE INLET NODE,Water,1
 Node,14,CW DEMAND OUTLET NODE,Water,2
 Node,15,SUPPLY SIDE EXIT PIPE INLET NODE,Water,1
 Node,16,CW SUPPLY INLET NODE,Water,2
 Node,17,CW PUMP OUTLET NODE,Water,1
 Node,18,LITTLE CHILLER INLET NODE,Water,1
 Node,19,LITTLE CHILLER OUTLET NODE,Water,2
 Node,20,BIG CHILLER INLET NODE,Water,1
 Node,21,BIG CHILLER OUTLET NODE,Water,2
 Node,22,PURCHASED COOLING INLET NODE,Water,1
 Node,23,PURCHASED COOLING OUTLET NODE,Water,1
 Node,24,CW SUPPLY BYPASS INLET NODE,Water,1
 Node,25,CW SUPPLY BYPASS OUTLET NODE,Water,1
 Node,26,CONDENSER SUPPLY INLET NODE,Water,2
 Node,27,CONDENSER PUMP OUTLET NODE,Water,1
 Node,28,CONDENSER TOWER INLET NODE,Water,1
 Node,29,CONDENSER TOWER OUTLET NODE,Water,1
 Node,30,COND SUPPLY BYPASS INLET NODE,Water,1
 Node,31,COND SUPPLY BYPASS OUTLET NODE,Water,1
 Node,32,CONDENSER SUPPLY EXIT PIPE INLET NODE,Water,1
 Node,33,CONDENSER SUPPLY OUTLET NODE,Water,4
 Node,34,CONDENSER DEMAND INLET NODE,Water,2
 Node,35,CONDENSER DEMAND ENTRANCE PIPE OUTLET NODE,Water,1
 Node,36,LITTLE CHILLER CONDENSER INLET NODE,Water,1
 Node,37,LITTLE CHILLER CONDENSER OUTLET NODE,Water,1
 Node,38,BIG CHILLER CONDENSER INLET NODE,Water,1
 Node,39,BIG CHILLER CONDENSER OUTLET NODE,Water,1
 Node,40,COND DEMAND BYPASS INLET NODE,Water,1
 Node,41,COND DEMAND BYPASS OUTLET NODE,Water,1
 Node,42,CONDENSER DEMAND EXIT PIPE INLET NODE,Water,1
 Node,43,CONDENSER DEMAND OUTLET NODE,Water,2
 Node,44,HW SUPPLY INLET NODE,Water,2
 Node,45,HW PUMP OUTLET NODE,Water,1
 Node,46,PURCHASED HEAT INLET NODE,Water,1
 Node,47,PURCHASED HEAT OUTLET NODE,Water,1
 Node,48,HEATING SUPPLY BYPASS INLET NODE,Water,1
 Node,49,HEATING SUPPLY BYPASS OUTLET NODE,Water,1
 Node,50,HEATING SUPPLY EXIT PIPE INLET NODE,Water,1
 Node,51,HW DEMAND INLET NODE,Water,2
 Node,52,HW DEMAND ENTRANCE PIPE OUTLET NODE,Water,1
 Node,53,HW DEMAND EXIT PIPE INLET NODE,Water,1
 Node,54,HW DEMAND OUTLET NODE,Water,2
 Node,55,WEST ZONE RADIANT WATER INLET NODE,Water,1
 Node,56,WEST ZONE RADIANT WATER OUTLET NODE,Water,1
 Node,57,EAST ZONE RADIANT WATER INLET NODE,Water,1
 Node,58,EAST ZONE RADIANT WATER OUTLET NODE,Water,1
 Node,59,NORTH ZONE RADIANT WATER INLET NODE,Water,1
 Node,60,NORTH ZONE RADIANT WATER OUTLET NODE,Water,1
 Node,61,REHEAT BYPASS INLET NODE,Water,1
 Node,62,REHEAT BYPASS OUTLET NODE,Water,1
 Node,63,ZONE 1 NODE,Air,0
 Node,64,ZONE 1 OUTLET NODE,Air,0
 Node,65,ZONE 2 NODE,Air,0
 Node,66,ZONE 2 OUTLET NODE,Air,0
 Node,67,ZONE 3 NODE,Air,0
 Node,68,ZONE 3 OUTLET NODE,Air,0
! ===============================================================
! Suspicious nodes have 0 references.  It is normal for some nodes, however.
! Listing nodes with 0 references (culled from previous list):
! <Suspicious Node>,<NodeNumber>,<Node Name>,<Node Fluid Type>,<# Times Node Referenced After Definition>
 Suspicious Node,63,ZONE 1 NODE,Air,0
 Suspicious Node,64,ZONE 1 OUTLET NODE,Air,0
 Suspicious Node,65,ZONE 2 NODE,Air,0
 Suspicious Node,66,ZONE 2 OUTLET NODE,Air,0
 Suspicious Node,67,ZONE 3 NODE,Air,0
 Suspicious Node,68,ZONE 3 OUTLET NODE,Air,0
! ===============================================================
! <#Branch Lists>,<Number of Branch Lists>
 #Branch Lists,6
! <Branch List>,<Branch List Count>,<Branch List Name>,<Loop Name>,<Loop Type>,<Number of Branches>
! <Branch>,<Branch Count>,<Branch Name>,<Loop Name>,<Loop Type>,<Branch Inlet Node Name>,<Branch Outlet Node Name>
 Branch List,1,COOLING SUPPLY SIDE BRANCHES,CHILLED WATER LOOP,Plant Supply,6
   Branch,1,CW PUMP BRANCH,CHILLED WATER LOOP,Plant Supply,CW SUPPLY INLET NODE,CW PUMP OUTLET NODE
   Branch,2,LITTLE CHILLER BRANCH,CHILLED WATER LOOP,Plant Supply,LITTLE CHILLER INLET NODE,LITTLE CHILLER OUTLET NODE
   Branch,3,BIG CHILLER BRANCH,CHILLED WATER LOOP,Plant Supply,BIG CHILLER INLET NODE,BIG CHILLER OUTLET NODE
   Branch,4,PURCHASED COOLING BRANCH,CHILLED WATER LOOP,Plant Supply,PURCHASED COOLING INLET NODE,PURCHASED COOLING OUTLET NODE
   Branch,5,SUPPLY BYPASS BRANCH,CHILLED WATER LOOP,Plant Supply,CW SUPPLY BYPASS INLET NODE,CW SUPPLY BYPASS OUTLET NODE
   Branch,6,COOLING SUPPLY OUTLET,CHILLED WATER LOOP,Plant Supply,SUPPLY SIDE EXIT PIPE INLET NODE,CW SUPPLY OUTLET NODE
 Branch List,2,COOLING DEMAND SIDE BRANCHES,CHILLED WATER LOOP,Plant Demand,6
   Branch,1,COOLING DEMAND INLET,CHILLED WATER LOOP,Plant Demand,CW DEMAND INLET NODE,CW DEMAND ENTRANCE PIPE OUTLET NODE
   Branch,2,ZONE 1 COOLING BRANCH,CHILLED WATER LOOP,Plant Demand,ZONE 1 COOLING WATER INLET NODE,ZONE 1 COOLING WATER OUTLET NODE
   Branch,3,ZONE 2 COOLING BRANCH,CHILLED WATER LOOP,Plant Demand,ZONE 2 COOLING WATER INLET NODE,ZONE 2 COOLING WATER OUTLET NODE
   Branch,4,ZONE 3 COOLING BRANCH,CHILLED WATER LOOP,Plant Demand,ZONE 3 COOLING WATER INLET NODE,ZONE 3 COOLING WATER OUTLET NODE
   Branch,5,DEMAND BYPASS BRANCH,CHILLED WATER LOOP,Plant Demand,CW DEMAND BYPASS INLET NODE,CW DEMAND BYPASS OUTLET NODE
   Branch,6,COOLING DEMAND OUTLET,CHILLED WATER LOOP,Plant Demand,CW DEMAND EXIT PIPE INLET NODE,CW DEMAND OUTLET NODE
 Branch List,3,CONDENSER SUPPLY SIDE BRANCHES,CHILLED WATER CONDENSER LOOP,Condenser Supply,4
   Branch,1,CONDENSER SUPPLY INLET BRANCH,CHILLED WATER CONDENSER LOOP,Condenser Supply,CONDENSER SUPPLY INLET NODE,CONDENSER PUMP OUTLET NODE
   Branch,2,CONDENSER SUPPLY TOWER BRANCH,CHILLED WATER CONDENSER LOOP,Condenser Supply,CONDENSER TOWER INLET NODE,CONDENSER TOWER OUTLET NODE
   Branch,3,CONDENSER SUPPLY BYPASS BRANCH,CHILLED WATER CONDENSER LOOP,Condenser Supply,COND SUPPLY BYPASS INLET NODE,COND SUPPLY BYPASS OUTLET NODE
   Branch,4,CONDENSER SUPPLY OUTLET BRANCH,CHILLED WATER CONDENSER LOOP,Condenser Supply,CONDENSER SUPPLY EXIT PIPE INLET NODE,CONDENSER SUPPLY OUTLET NODE
 Branch List,4,CONDENSER DEMAND SIDE BRANCHES,CHILLED WATER CONDENSER LOOP,Condenser Demand,5
   Branch,1,CONDENSER DEMAND INLET BRANCH,CHILLED WATER CONDENSER LOOP,Condenser Demand,CONDENSER DEMAND INLET NODE,CONDENSER DEMAND ENTRANCE PIPE OUTLET NODE
   Branch,2,LITTLE CHILLER CONDENSER BRANCH,CHILLED WATER CONDENSER LOOP,Condenser Demand,LITTLE CHILLER CONDENSER INLET NODE,LITTLE CHILLER CONDENSER OUTLET NODE
   Branch,3,BIG CHILLER CONDENSER BRANCH,CHILLED WATER CONDENSER LOOP,Condenser Demand,BIG CHILLER CONDENSER INLET NODE,BIG CHILLER CONDENSER OUTLET NODE
   Branch,4,CONDENSER DEMAND BYPASS BRANCH,CHILLED WATER CONDENSER LOOP,Condenser Demand,COND DEMAND BYPASS INLET NODE,COND DEMAND BYPASS OUTLET NODE
   Branch,5,CONDENSER DEMAND OUTLET BRANCH,CHILLED WATER CONDENSER LOOP,Condenser Demand,CONDENSER DEMAND EXIT PIPE INLET NODE,CONDENSER DEMAND OUTLET NODE
 Branch List,5,HEATING SUPPLY SIDE BRANCHES,HOT WATER LOOP,Plant Supply,4
   Branch,1,HEATING SUPPLY INLET BRANCH,HOT WATER LOOP,Plant Supply,HW SUPPLY INLET NODE,HW PUMP OUTLET NODE
   Branch,2,HEATING PURCHASED HOT WATER BRANCH,HOT WATER LOOP,Plant Supply,PURCHASED HEAT INLET NODE,PURCHASED HEAT OUTLET NODE
   Branch,3,HEATING SUPPLY BYPASS BRANCH,HOT WATER LOOP,Plant Supply,HEATING SUPPLY BYPASS INLET NODE,HEATING SUPPLY BYPASS OUTLET NODE
   Branch,4,HEATING SUPPLY OUTLET BRANCH,HOT WATER LOOP,Plant Supply,HEATING SUPPLY EXIT PIPE INLET NODE,HW SUPPLY OUTLET NODE
 Branch List,6,HEATING DEMAND SIDE BRANCHES,HOT WATER LOOP,Plant Demand,6
   Branch,1,REHEAT INLET BRANCH,HOT WATER LOOP,Plant Demand,HW DEMAND INLET NODE,HW DEMAND ENTRANCE PIPE OUTLET NODE
   Branch,2,ZONE 1 RADIANT BRANCH,HOT WATER LOOP,Plant Demand,WEST ZONE RADIANT WATER INLET NODE,WEST ZONE RADIANT WATER OUTLET NODE
   Branch,3,ZONE 2 RADIANT BRANCH,HOT WATER LOOP,Plant Demand,EAST ZONE RADIANT WATER INLET NODE,EAST ZONE RADIANT WATER OUTLET NODE
   Branch,4,ZONE 3 RADIANT BRANCH,HOT WATER LOOP,Plant Demand,NORTH ZONE RADIANT WATER INLET NODE,NORTH ZONE RADIANT WATER OUTLET NODE
   Branch,5,REHEAT BYPASS BRANCH,HOT WATER LOOP,Plant Demand,REHEAT BYPASS INLET NODE,REHEAT BYPASS OUTLET NODE
   Branch,6,REHEAT OUTLET BRANCH,HOT WATER LOOP,Plant Demand,HW DEMAND EXIT PIPE INLET NODE,HW DEMAND OUTLET NODE
! ===============================================================
! <#Supply Air Paths>,<Number of Supply Air Paths>
 #Supply Air Paths,0
! <Supply Air Path>,<Supply Air Path Count>,<Supply Air Path Name>,<AirLoopHVAC Name>
! <#Components on Supply Air Path>,<Number of Components>
! <Supply Air Path Component>,<Component Count>,<Component Type>,<Component Name>,<AirLoopHVAC Name>
! <#Outlet Nodes on Supply Air Path Component>,<Number of Nodes>
! <Supply Air Path Component Nodes>,<Node Count>,<Component Type>,<Component Name>,<Inlet Node Name>,<Outlet Node Name>,<AirLoopHVAC Name>
! ===============================================================
! <#Return Air Paths>,<Number of Return Air Paths>
 #Return Air Paths,0
! <Return Air Path>,<Return Air Path Count>,<Return Air Path Name>,<AirLoopHVAC Name>
! <#Components on Return Air Path>,<Number of Components>
! <Return Air Path Component>,<Component Count>,<Component Type>,<Component Name>,<AirLoopHVAC Name>
! <#Inlet Nodes on Return Air Path Component>,<Number of Nodes>
! <Return Air Path Component Nodes>,<Node Count>,<Component Type>,<Component Name>,<Inlet Node Name>,<Outlet Node Name>,<AirLoopHVAC Name>
! ===============================================================
! #Outdoor Air Nodes,<Number of Outdoor Air Nodes>
 #Outdoor Air Nodes,0
! ===============================================================
! <#Component Sets>,<Number of Component Sets>
 #Component Sets,31
! <Component Set>,<Component Set Count>,<Parent Object Type>,<Parent Object Name>,<Component Type>,<Component Name>,<Inlet Node ID>,<Outlet Node ID>,<Description>
 Component Set,1,BRANCH,COOLING DEMAND INLET,PIPE:ADIABATIC,DEMAND SIDE INLET PIPE,CW DEMAND INLET NODE,CW DEMAND ENTRANCE PIPE OUTLET NODE,Pipe Nodes
 Component Set,2,BRANCH,ZONE 1 COOLING BRANCH,ZONEHVAC:LOWTEMPERATURERADIANT:CONSTANTFLOW,WEST ZONE RADIANT FLOOR,ZONE 1 COOLING WATER INLET NODE,ZONE 1 COOLING WATER OUTLET NODE,Chilled Water Nodes
 Component Set,3,BRANCH,ZONE 2 COOLING BRANCH,ZONEHVAC:LOWTEMPERATURERADIANT:CONSTANTFLOW,EAST ZONE RADIANT FLOOR,ZONE 2 COOLING WATER INLET NODE,ZONE 2 COOLING WATER OUTLET NODE,Chilled Water Nodes
 Component Set,4,BRANCH,ZONE 3 COOLING BRANCH,ZONEHVAC:LOWTEMPERATURERADIANT:CONSTANTFLOW,NORTH ZONE RADIANT FLOOR,ZONE 3 COOLING WATER INLET NODE,ZONE 3 COOLING WATER OUTLET NODE,Chilled Water Nodes
 Component Set,5,BRANCH,DEMAND BYPASS BRANCH,PIPE:ADIABATIC,DEMAND SIDE BYPASS,CW DEMAND BYPASS INLET NODE,CW DEMAND BYPASS OUTLET NODE,Pipe Nodes
 Component Set,6,BRANCH,COOLING DEMAND OUTLET,PIPE:ADIABATIC,CW DEMAND SIDE OUTLET PIPE,CW DEMAND EXIT PIPE INLET NODE,CW DEMAND OUTLET NODE,Pipe Nodes
 Component Set,7,BRANCH,COOLING SUPPLY OUTLET,PIPE:ADIABATIC,SUPPLY SIDE OUTLET PIPE,SUPPLY SIDE EXIT PIPE INLET NODE,CW SUPPLY OUTLET NODE,Pipe Nodes
 Component Set,8,BRANCH,CW PUMP BRANCH,PUMP:VARIABLESPEED,CIRC PUMP,CW SUPPLY INLET NODE,CW PUMP OUTLET NODE,Water Nodes
 Component Set,9,BRANCH,LITTLE CHILLER BRANCH,CHILLER:CONSTANTCOP,LITTLE CHILLER,LITTLE CHILLER INLET NODE,LITTLE CHILLER OUTLET NODE,Chilled Water Nodes
 Component Set,10,BRANCH,BIG CHILLER BRANCH,CHILLER:ELECTRIC,BIG CHILLER,BIG CHILLER INLET NODE,BIG CHILLER OUTLET NODE,Chilled Water Nodes
 Component Set,11,BRANCH,PURCHASED COOLING BRANCH,DISTRICTCOOLING,PURCHASED COOLING,PURCHASED COOLING INLET NODE,PURCHASED COOLING OUTLET NODE,Chilled Water Nodes
 Component Set,12,BRANCH,SUPPLY BYPASS BRANCH,PIPE:ADIABATIC,SUPPLY SIDE BYPASS,CW SUPPLY BYPASS INLET NODE,CW SUPPLY BYPASS OUTLET NODE,Pipe Nodes
 Component Set,13,BRANCH,CONDENSER SUPPLY INLET BRANCH,PUMP:VARIABLESPEED,COND CIRC PUMP,CONDENSER SUPPLY INLET NODE,CONDENSER PUMP OUTLET NODE,Water Nodes
 Component Set,14,BRANCH,CONDENSER SUPPLY TOWER BRANCH,COOLINGTOWER:SINGLESPEED,BIG TOWER,CONDENSER TOWER INLET NODE,CONDENSER TOWER OUTLET NODE,Chilled Water Nodes
 Component Set,15,BRANCH,CONDENSER SUPPLY BYPASS BRANCH,PIPE:ADIABATIC,CONDENSER SUPPLY SIDE BYPASS,COND SUPPLY BYPASS INLET NODE,COND SUPPLY BYPASS OUTLET NODE,Pipe Nodes
 Component Set,16,BRANCH,CONDENSER SUPPLY OUTLET BRANCH,PIPE:ADIABATIC,CONDENSER SUPPLY OUTLET,CONDENSER SUPPLY EXIT PIPE INLET NODE,CONDENSER SUPPLY OUTLET NODE,Pipe Nodes
 Component Set,17,BRANCH,CONDENSER DEMAND INLET BRANCH,PIPE:ADIABATIC,CONDENSER DEMAND INLET PIPE,CONDENSER DEMAND INLET NODE,CONDENSER DEMAND ENTRANCE PIPE OUTLET NODE,Pipe Nodes
 Component Set,18,BRANCH,LITTLE CHILLER CONDENSER BRANCH,CHILLER:CONSTANTCOP,LITTLE CHILLER,LITTLE CHILLER CONDENSER INLET NODE,LITTLE CHILLER CONDENSER OUTLET NODE,Condenser Water Nodes
 Component Set,19,BRANCH,BIG CHILLER CONDENSER BRANCH,CHILLER:ELECTRIC,BIG CHILLER,BIG CHILLER CONDENSER INLET NODE,BIG CHILLER CONDENSER OUTLET NODE,Condenser Water Nodes
 Component Set,20,BRANCH,CONDENSER DEMAND BYPASS BRANCH,PIPE:ADIABATIC,CONDENSER DEMAND SIDE BYPASS,COND DEMAND BYPASS INLET NODE,COND DEMAND BYPASS OUTLET NODE,Pipe Nodes
 Component Set,21,BRANCH,CONDENSER DEMAND OUTLET BRANCH,PIPE:ADIABATIC,CONDENSER DEMAND OUTLET PIPE,CONDENSER DEMAND EXIT PIPE INLET NODE,CONDENSER DEMAND OUTLET NODE,Pipe Nodes
 Component Set,22,BRANCH,HEATING SUPPLY INLET BRANCH,PUMP:VARIABLESPEED,HW CIRC PUMP,HW SUPPLY INLET NODE,HW PUMP OUTLET NODE,Water Nodes
 Component Set,23,BRANCH,HEATING PURCHASED HOT WATER BRANCH,DISTRICTHEATING,PURCHASED HEATING,PURCHASED HEAT INLET NODE,PURCHASED HEAT OUTLET NODE,Hot Water Nodes
 Component Set,24,BRANCH,HEATING SUPPLY BYPASS BRANCH,PIPE:ADIABATIC,HEATING SUPPLY SIDE BYPASS,HEATING SUPPLY BYPASS INLET NODE,HEATING SUPPLY BYPASS OUTLET NODE,Pipe Nodes
 Component Set,25,BRANCH,HEATING SUPPLY OUTLET BRANCH,PIPE:ADIABATIC,HEATING SUPPLY OUTLET,HEATING SUPPLY EXIT PIPE INLET NODE,HW SUPPLY OUTLET NODE,Pipe Nodes
 Component Set,26,BRANCH,REHEAT INLET BRANCH,PIPE:ADIABATIC,REHEAT INLET PIPE,HW DEMAND INLET NODE,HW DEMAND ENTRANCE PIPE OUTLET NODE,Pipe Nodes
 Component Set,27,BRANCH,REHEAT OUTLET BRANCH,PIPE:ADIABATIC,REHEAT OUTLET PIPE,HW DEMAND EXIT PIPE INLET NODE,HW DEMAND OUTLET NODE,Pipe Nodes
 Component Set,28,BRANCH,ZONE 1 RADIANT BRANCH,ZONEHVAC:LOWTEMPERATURERADIANT:CONSTANTFLOW,WEST ZONE RADIANT FLOOR,WEST ZONE RADIANT WATER INLET NODE,WEST ZONE RADIANT WATER OUTLET NODE,Hot Water Nodes
 Component Set,29,BRANCH,ZONE 2 RADIANT BRANCH,ZONEHVAC:LOWTEMPERATURERADIANT:CONSTANTFLOW,EAST ZONE RADIANT FLOOR,EAST ZONE RADIANT WATER INLET NODE,EAST ZONE RADIANT WATER OUTLET NODE,Hot Water Nodes
 Component Set,30,BRANCH,ZONE 3 RADIANT BRANCH,ZONEHVAC:LOWTEMPERATURERADIANT:CONSTANTFLOW,NORTH ZONE RADIANT FLOOR,NORTH ZONE RADIANT WATER INLET NODE,NORTH ZONE RADIANT WATER OUTLET NODE,Hot Water Nodes
 Component Set,31,BRANCH,REHEAT BYPASS BRANCH,PIPE:ADIABATIC,REHEAT BYPASS,REHEAT BYPASS INLET NODE,REHEAT BYPASS OUTLET NODE,Pipe Nodes
! ===============================================================
! <# Plant Loops>,<Number of Plant Loops>
 #Plant Loops,2
! <Plant Loop>,<Plant Loop Name>,<Loop Type>,<Inlet Node Name>,<Outlet Node Name>,<Branch List>,<Connector List>
! <Plant Loop Connector>,<Connector Type>,<Connector Name>,<Loop Name>,<Loop Type>,<Number of Inlets/Outlets>
! <Plant Loop Connector Branches>,<Connector Node Count>,<Connector Type>,<Connector Name>,<Inlet Branch>,<Outlet Branch>,<Loop Name>,<Loop Type>
! <Plant Loop Connector Nodes>,<Connector Node Count>,<Connector Type>,<Connector Name>,<Inlet Node>,<Outlet Node>,<Loop Name>,<Loop Type>
! <Plant Loop Supply Connection>,<Plant Loop Name>,<Supply Side Outlet Node Name>,<Demand Side Inlet Node Name>
! <Plant Loop Return Connection>,<Plant Loop Name>,<Demand Side Outlet Node Name>,<Supply Side Inlet Node Name>
 Plant Loop,CHILLED WATER LOOP,Demand,CW DEMAND INLET NODE,CW DEMAND OUTLET NODE,COOLING DEMAND SIDE BRANCHES,COOLING DEMAND SIDE CONNECTORS
   Plant Loop Connector,Splitter,CW DEMAND SPLITTER,CHILLED WATER LOOP,Demand,4
     Plant Loop Connector Branches,1,Splitter,CW DEMAND SPLITTER,COOLING DEMAND INLET,ZONE 1 COOLING BRANCH,CHILLED WATER LOOP,Demand
     Plant Loop Connector Nodes,   1,Splitter,CW DEMAND SPLITTER,CW DEMAND ENTRANCE PIPE OUTLET NODE,ZONE 1 COOLING WATER INLET NODE,CHILLED WATER LOOP,Demand
     Plant Loop Connector Branches,2,Splitter,CW DEMAND SPLITTER,COOLING DEMAND INLET,ZONE 2 COOLING BRANCH,CHILLED WATER LOOP,Demand
     Plant Loop Connector Nodes,   2,Splitter,CW DEMAND SPLITTER,CW DEMAND ENTRANCE PIPE OUTLET NODE,ZONE 2 COOLING WATER INLET NODE,CHILLED WATER LOOP,Demand
     Plant Loop Connector Branches,3,Splitter,CW DEMAND SPLITTER,COOLING DEMAND INLET,ZONE 3 COOLING BRANCH,CHILLED WATER LOOP,Demand
     Plant Loop Connector Nodes,   3,Splitter,CW DEMAND SPLITTER,CW DEMAND ENTRANCE PIPE OUTLET NODE,ZONE 3 COOLING WATER INLET NODE,CHILLED WATER LOOP,Demand
     Plant Loop Connector Branches,4,Splitter,CW DEMAND SPLITTER,COOLING DEMAND INLET,DEMAND BYPASS BRANCH,CHILLED WATER LOOP,Demand
     Plant Loop Connector Nodes,   4,Splitter,CW DEMAND SPLITTER,CW DEMAND ENTRANCE PIPE OUTLET NODE,CW DEMAND BYPASS INLET NODE,CHILLED WATER LOOP,Demand
   Plant Loop Connector,Mixer,CW DEMAND MIXER,CHILLED WATER LOOP,Demand,4
     Plant Loop Connector Branches,1,Mixer,CW DEMAND MIXER,ZONE 1 COOLING BRANCH,COOLING DEMAND OUTLET,CHILLED WATER LOOP,Demand
     Plant Loop Connector Nodes,   1,Mixer,CW DEMAND MIXER,ZONE 1 COOLING WATER OUTLET NODE,CW DEMAND EXIT PIPE INLET NODE,CHILLED WATER LOOP,Demand
     Plant Loop Connector Branches,2,Mixer,CW DEMAND MIXER,ZONE 2 COOLING BRANCH,COOLING DEMAND OUTLET,CHILLED WATER LOOP,Demand
     Plant Loop Connector Nodes,   2,Mixer,CW DEMAND MIXER,ZONE 2 COOLING WATER OUTLET NODE,CW DEMAND EXIT PIPE INLET NODE,CHILLED WATER LOOP,Demand
     Plant Loop Connector Branches,3,Mixer,CW DEMAND MIXER,ZONE 3 COOLING BRANCH,COOLING DEMAND OUTLET,CHILLED WATER LOOP,Demand
     Plant Loop Connector Nodes,   3,Mixer,CW DEMAND MIXER,ZONE 3 COOLING WATER OUTLET NODE,CW DEMAND EXIT PIPE INLET NODE,CHILLED WATER LOOP,Demand
     Plant Loop Connector Branches,4,Mixer,CW DEMAND MIXER,DEMAND BYPASS BRANCH,COOLING DEMAND OUTLET,CHILLED WATER LOOP,Demand
     Plant Loop Connector Nodes,   4,Mixer,CW DEMAND MIXER,CW DEMAND BYPASS OUTLET NODE,CW DEMAND EXIT PIPE INLET NODE,CHILLED WATER LOOP,Demand
 Plant Loop,CHILLED WATER LOOP,Supply,CW SUPPLY INLET NODE,CW SUPPLY OUTLET NODE,COOLING SUPPLY SIDE BRANCHES,COOLING SUPPLY SIDE CONNECTORS
   Plant Loop Connector,Splitter,CW LOOP SPLITTER,CHILLED WATER LOOP,Supply,4
     Plant Loop Connector Branches,1,Splitter,CW LOOP SPLITTER,CW PUMP BRANCH,LITTLE CHILLER BRANCH,CHILLED WATER LOOP,Supply
     Plant Loop Connector Nodes,   1,Splitter,CW LOOP SPLITTER,CW PUMP OUTLET NODE,LITTLE CHILLER INLET NODE,CHILLED WATER LOOP,Supply
     Plant Loop Connector Branches,2,Splitter,CW LOOP SPLITTER,CW PUMP BRANCH,BIG CHILLER BRANCH,CHILLED WATER LOOP,Supply
     Plant Loop Connector Nodes,   2,Splitter,CW LOOP SPLITTER,CW PUMP OUTLET NODE,BIG CHILLER INLET NODE,CHILLED WATER LOOP,Supply
     Plant Loop Connector Branches,3,Splitter,CW LOOP SPLITTER,CW PUMP BRANCH,PURCHASED COOLING BRANCH,CHILLED WATER LOOP,Supply
     Plant Loop Connector Nodes,   3,Splitter,CW LOOP SPLITTER,CW PUMP OUTLET NODE,PURCHASED COOLING INLET NODE,CHILLED WATER LOOP,Supply
     Plant Loop Connector Branches,4,Splitter,CW LOOP SPLITTER,CW PUMP BRANCH,SUPPLY BYPASS BRANCH,CHILLED WATER LOOP,Supply
     Plant Loop Connector Nodes,   4,Splitter,CW LOOP SPLITTER,CW PUMP OUTLET NODE,CW SUPPLY BYPASS INLET NODE,CHILLED WATER LOOP,Supply
   Plant Loop Connector,Mixer,CW LOOP MIXER,CHILLED WATER LOOP,Supply,4
     Plant Loop Connector Branches,1,Mixer,CW LOOP MIXER,LITTLE CHILLER BRANCH,COOLING SUPPLY OUTLET,CHILLED WATER LOOP,Supply
     Plant Loop Connector Nodes,   1,Mixer,CW LOOP MIXER,LITTLE CHILLER OUTLET NODE,SUPPLY SIDE EXIT PIPE INLET NODE,CHILLED WATER LOOP,Supply
     Plant Loop Connector Branches,2,Mixer,CW LOOP MIXER,BIG CHILLER BRANCH,COOLING SUPPLY OUTLET,CHILLED WATER LOOP,Supply
     Plant Loop Connector Nodes,   2,Mixer,CW LOOP MIXER,BIG CHILLER OUTLET NODE,SUPPLY SIDE EXIT PIPE INLET NODE,CHILLED WATER LOOP,Supply
     Plant Loop Connector Branches,3,Mixer,CW LOOP MIXER,PURCHASED COOLING BRANCH,COOLING SUPPLY OUTLET,CHILLED WATER LOOP,Supply
     Plant Loop Connector Nodes,   3,Mixer,CW LOOP MIXER,PURCHASED COOLING OUTLET NODE,SUPPLY SIDE EXIT PIPE INLET NODE,CHILLED WATER LOOP,Supply
     Plant Loop Connector Branches,4,Mixer,CW LOOP MIXER,SUPPLY BYPASS BRANCH,COOLING SUPPLY OUTLET,CHILLED WATER LOOP,Supply
     Plant Loop Connector Nodes,   4,Mixer,CW LOOP MIXER,CW SUPPLY BYPASS OUTLET NODE,SUPPLY SIDE EXIT PIPE INLET NODE,CHILLED WATER LOOP,Supply
 Plant Loop Supply Connection,CHILLED WATER LOOP,CW SUPPLY OUTLET NODE,CW DEMAND INLET NODE
 Plant Loop Return Connection,CHILLED WATER LOOP,CW DEMAND OUTLET NODE,CW SUPPLY INLET NODE
 Plant Loop,HOT WATER LOOP,Demand,HW DEMAND INLET NODE,HW DEMAND OUTLET NODE,HEATING DEMAND SIDE BRANCHES,HEATING DEMAND SIDE CONNECTORS
   Plant Loop Connector,Splitter,REHEAT SPLITTER,HOT WATER LOOP,Demand,4
     Plant Loop Connector Branches,1,Splitter,REHEAT SPLITTER,REHEAT INLET BRANCH,ZONE 1 RADIANT BRANCH,HOT WATER LOOP,Demand
     Plant Loop Connector Nodes,   1,Splitter,REHEAT SPLITTER,HW DEMAND ENTRANCE PIPE OUTLET NODE,WEST ZONE RADIANT WATER INLET NODE,HOT WATER LOOP,Demand
     Plant Loop Connector Branches,2,Splitter,REHEAT SPLITTER,REHEAT INLET BRANCH,ZONE 2 RADIANT BRANCH,HOT WATER LOOP,Demand
     Plant Loop Connector Nodes,   2,Splitter,REHEAT SPLITTER,HW DEMAND ENTRANCE PIPE OUTLET NODE,EAST ZONE RADIANT WATER INLET NODE,HOT WATER LOOP,Demand
     Plant Loop Connector Branches,3,Splitter,REHEAT SPLITTER,REHEAT INLET BRANCH,ZONE 3 RADIANT BRANCH,HOT WATER LOOP,Demand
     Plant Loop Connector Nodes,   3,Splitter,REHEAT SPLITTER,HW DEMAND ENTRANCE PIPE OUTLET NODE,NORTH ZONE RADIANT WATER INLET NODE,HOT WATER LOOP,Demand
     Plant Loop Connector Branches,4,Splitter,REHEAT SPLITTER,REHEAT INLET BRANCH,REHEAT BYPASS BRANCH,HOT WATER LOOP,Demand
     Plant Loop Connector Nodes,   4,Splitter,REHEAT SPLITTER,HW DEMAND ENTRANCE PIPE OUTLET NODE,REHEAT BYPASS INLET NODE,HOT WATER LOOP,Demand
   Plant Loop Connector,Mixer,REHEAT MIXER,HOT WATER LOOP,Demand,4
     Plant Loop Connector Branches,1,Mixer,REHEAT MIXER,ZONE 1 RADIANT BRANCH,REHEAT OUTLET BRANCH,HOT WATER LOOP,Demand
     Plant Loop Connector Nodes,   1,Mixer,REHEAT MIXER,WEST ZONE RADIANT WATER OUTLET NODE,HW DEMAND EXIT PIPE INLET NODE,HOT WATER LOOP,Demand
     Plant Loop Connector Branches,2,Mixer,REHEAT MIXER,ZONE 2 RADIANT BRANCH,REHEAT OUTLET BRANCH,HOT WATER LOOP,Demand
     Plant Loop Connector Nodes,   2,Mixer,REHEAT MIXER,EAST ZONE RADIANT WATER OUTLET NODE,HW DEMAND EXIT PIPE INLET NODE,HOT WATER LOOP,Demand
     Plant Loop Connector Branches,3,Mixer,REHEAT MIXER,ZONE 3 RADIANT BRANCH,REHEAT OUTLET BRANCH,HOT WATER LOOP,Demand
     Plant Loop Connector Nodes,   3,Mixer,REHEAT MIXER,NORTH ZONE RADIANT WATER OUTLET NODE,HW DEMAND EXIT PIPE INLET NODE,HOT WATER LOOP,Demand
     Plant Loop Connector Branches,4,Mixer,REHEAT MIXER,REHEAT BYPASS BRANCH,REHEAT OUTLET BRANCH,HOT WATER LOOP,Demand
     Plant Loop Connector Nodes,   4,Mixer,REHEAT MIXER,REHEAT BYPASS OUTLET NODE,HW DEMAND EXIT PIPE INLET NODE,HOT WATER LOOP,Demand
 Plant Loop,HOT WATER LOOP,Supply,HW SUPPLY INLET NODE,HW SUPPLY OUTLET NODE,HEATING SUPPLY SIDE BRANCHES,HEATING SUPPLY SIDE CONNECTORS
   Plant Loop Connector,Splitter,HEATING SUPPLY SPLITTER,HOT WATER LOOP,Supply,2
     Plant Loop Connector Branches,1,Splitter,HEATING SUPPLY SPLITTER,HEATING SUPPLY INLET BRANCH,HEATING PURCHASED HOT WATER BRANCH,HOT WATER LOOP,Supply
     Plant Loop Connector Nodes,   1,Splitter,HEATING SUPPLY SPLITTER,HW PUMP OUTLET NODE,PURCHASED HEAT INLET NODE,HOT WATER LOOP,Supply
     Plant Loop Connector Branches,2,Splitter,HEATING SUPPLY SPLITTER,HEATING SUPPLY INLET BRANCH,HEATING SUPPLY BYPASS BRANCH,HOT WATER LOOP,Supply
     Plant Loop Connector Nodes,   2,Splitter,HEATING SUPPLY SPLITTER,HW PUMP OUTLET NODE,HEATING SUPPLY BYPASS INLET NODE,HOT WATER LOOP,Supply
   Plant Loop Connector,Mixer,HEATING SUPPLY MIXER,HOT WATER LOOP,Supply,2
     Plant Loop Connector Branches,1,Mixer,HEATING SUPPLY MIXER,HEATING PURCHASED HOT WATER BRANCH,HEATING SUPPLY OUTLET BRANCH,HOT WATER LOOP,Supply
     Plant Loop Connector Nodes,   1,Mixer,HEATING SUPPLY MIXER,PURCHASED HEAT OUTLET NODE,HEATING SUPPLY EXIT PIPE INLET NODE,HOT WATER LOOP,Supply
     Plant Loop Connector Branches,2,Mixer,HEATING SUPPLY MIXER,HEATING SUPPLY BYPASS BRANCH,HEATING SUPPLY OUTLET BRANCH,HOT WATER LOOP,Supply
     Plant Loop Connector Nodes,   2,Mixer,HEATING SUPPLY MIXER,HEATING SUPPLY BYPASS OUTLET NODE,HEATING SUPPLY EXIT PIPE INLET NODE,HOT WATER LOOP,Supply
 Plant Loop Supply Connection,HOT WATER LOOP,HW SUPPLY OUTLET NODE,HW DEMAND INLET NODE
 Plant Loop Return Connection,HOT WATER LOOP,HW DEMAND OUTLET NODE,HW SUPPLY INLET NODE
! ===============================================================
! <# Condenser Loops>,<Number of Condenser Loops>
 #Condenser Loops,1
! <Condenser Loop>,<Condenser Loop Name>,<Loop Type>,<Inlet Node Name>,<Outlet Node Name>,<Branch List>,<Connector List>
! <Condenser Loop Connector>,<Connector Type>,<Connector Name>,<Loop Name>,<Loop Type>,<Number of Inlets/Outlets>
! <Condenser Loop Connector Branches>,<Connector Node Count>,<Connector Type>,<Connector Name>,<Inlet Branch>,<Outlet Branch>,<Loop Name>,<Loop Type>
! <Condenser Loop Connector Nodes>,<Connector Node Count>,<Connector Type>,<Connector Name>,<Inlet Node>,<Outlet Node>,<Loop Name>,<Loop Type>
! <Condenser Loop Supply Connection>,<Condenser Loop Name>,<Supply Side Outlet Node Name>,<Demand Side Inlet Node Name>
! <Condenser Loop Return Connection>,<Condenser Loop Name>,<Demand Side Outlet Node Name>,<Supply Side Inlet Node Name>
 Plant Loop,CHILLED WATER CONDENSER LOOP,Demand,CONDENSER DEMAND INLET NODE,CONDENSER DEMAND OUTLET NODE,CONDENSER DEMAND SIDE BRANCHES,CONDENSER DEMAND SIDE CONNECTORS
   Plant Loop Connector,Splitter,CONDENSER DEMAND SPLITTER,CHILLED WATER CONDENSER LOOP,Demand,3
     Plant Loop Connector Branches,1,Splitter,CONDENSER DEMAND SPLITTER,CONDENSER DEMAND INLET BRANCH,BIG CHILLER CONDENSER BRANCH,CHILLED WATER CONDENSER LOOP,Demand
     Plant Loop Connector Nodes,   1,Splitter,CONDENSER DEMAND SPLITTER,CONDENSER DEMAND ENTRANCE PIPE OUTLET NODE,BIG CHILLER CONDENSER INLET NODE,CHILLED WATER CONDENSER LOOP,Demand
     Plant Loop Connector Branches,2,Splitter,CONDENSER DEMAND SPLITTER,CONDENSER DEMAND INLET BRANCH,LITTLE CHILLER CONDENSER BRANCH,CHILLED WATER CONDENSER LOOP,Demand
     Plant Loop Connector Nodes,   2,Splitter,CONDENSER DEMAND SPLITTER,CONDENSER DEMAND ENTRANCE PIPE OUTLET NODE,LITTLE CHILLER CONDENSER INLET NODE,CHILLED WATER CONDENSER LOOP,Demand
     Plant Loop Connector Branches,3,Splitter,CONDENSER DEMAND SPLITTER,CONDENSER DEMAND INLET BRANCH,CONDENSER DEMAND BYPASS BRANCH,CHILLED WATER CONDENSER LOOP,Demand
     Plant Loop Connector Nodes,   3,Splitter,CONDENSER DEMAND SPLITTER,CONDENSER DEMAND ENTRANCE PIPE OUTLET NODE,COND DEMAND BYPASS INLET NODE,CHILLED WATER CONDENSER LOOP,Demand
   Plant Loop Connector,Mixer,CONDENSER DEMAND MIXER,CHILLED WATER CONDENSER LOOP,Demand,3
     Plant Loop Connector Branches,1,Mixer,CONDENSER DEMAND MIXER,BIG CHILLER CONDENSER BRANCH,CONDENSER DEMAND OUTLET BRANCH,CHILLED WATER CONDENSER LOOP,Demand
     Plant Loop Connector Nodes,   1,Mixer,CONDENSER DEMAND MIXER,BIG CHILLER CONDENSER OUTLET NODE,CONDENSER DEMAND EXIT PIPE INLET NODE,CHILLED WATER CONDENSER LOOP,Demand
     Plant Loop Connector Branches,2,Mixer,CONDENSER DEMAND MIXER,LITTLE CHILLER CONDENSER BRANCH,CONDENSER DEMAND OUTLET BRANCH,CHILLED WATER CONDENSER LOOP,Demand
     Plant Loop Connector Nodes,   2,Mixer,CONDENSER DEMAND MIXER,LITTLE CHILLER CONDENSER OUTLET NODE,CONDENSER DEMAND EXIT PIPE INLET NODE,CHILLED WATER CONDENSER LOOP,Demand
     Plant Loop Connector Branches,3,Mixer,CONDENSER DEMAND MIXER,CONDENSER DEMAND BYPASS BRANCH,CONDENSER DEMAND OUTLET BRANCH,CHILLED WATER CONDENSER LOOP,Demand
     Plant Loop Connector Nodes,   3,Mixer,CONDENSER DEMAND MIXER,COND DEMAND BYPASS OUTLET NODE,CONDENSER DEMAND EXIT PIPE INLET NODE,CHILLED WATER CONDENSER LOOP,Demand
 Plant Loop,CHILLED WATER CONDENSER LOOP,Supply,CONDENSER SUPPLY INLET NODE,CONDENSER SUPPLY OUTLET NODE,CONDENSER SUPPLY SIDE BRANCHES,CONDENSER SUPPLY SIDE CONNECTORS
   Plant Loop Connector,Splitter,CONDENSER SUPPLY SPLITTER,CHILLED WATER CONDENSER LOOP,Supply,2
     Plant Loop Connector Branches,1,Splitter,CONDENSER SUPPLY SPLITTER,CONDENSER SUPPLY INLET BRANCH,CONDENSER SUPPLY TOWER BRANCH,CHILLED WATER CONDENSER LOOP,Supply
     Plant Loop Connector Nodes,   1,Splitter,CONDENSER SUPPLY SPLITTER,CONDENSER PUMP OUTLET NODE,CONDENSER TOWER INLET NODE,CHILLED WATER CONDENSER LOOP,Supply
     Plant Loop Connector Branches,2,Splitter,CONDENSER SUPPLY SPLITTER,CONDENSER SUPPLY INLET BRANCH,CONDENSER SUPPLY BYPASS BRANCH,CHILLED WATER CONDENSER LOOP,Supply
     Plant Loop Connector Nodes,   2,Splitter,CONDENSER SUPPLY SPLITTER,CONDENSER PUMP OUTLET NODE,COND SUPPLY BYPASS INLET NODE,CHILLED WATER CONDENSER LOOP,Supply
   Plant Loop Connector,Mixer,CONDENSER SUPPLY MIXER,CHILLED WATER CONDENSER LOOP,Supply,2
     Plant Loop Connector Branches,1,Mixer,CONDENSER SUPPLY MIXER,CONDENSER SUPPLY TOWER BRANCH,CONDENSER SUPPLY OUTLET BRANCH,CHILLED WATER CONDENSER LOOP,Supply
     Plant Loop Connector Nodes,   1,Mixer,CONDENSER SUPPLY MIXER,CONDENSER TOWER OUTLET NODE,CONDENSER SUPPLY EXIT PIPE INLET NODE,CHILLED WATER CONDENSER LOOP,Supply
     Plant Loop Connector Branches,2,Mixer,CONDENSER SUPPLY MIXER,CONDENSER SUPPLY BYPASS BRANCH,CONDENSER SUPPLY OUTLET BRANCH,CHILLED WATER CONDENSER LOOP,Supply
     Plant Loop Connector Nodes,   2,Mixer,CONDENSER SUPPLY MIXER,COND SUPPLY BYPASS OUTLET NODE,CONDENSER SUPPLY EXIT PIPE INLET NODE,CHILLED WATER CONDENSER LOOP,Supply
 Plant Loop Supply Connection,CHILLED WATER CONDENSER LOOP,CONDENSER SUPPLY OUTLET NODE,CONDENSER DEMAND INLET NODE
 Plant Loop Return Connection,CHILLED WATER CONDENSER LOOP,CONDENSER DEMAND OUTLET NODE,CONDENSER SUPPLY INLET NODE
! ===============================================================
! <# Controlled Zones>,<Number of Controlled Zones>
 #Controlled Zones,3
! <Controlled Zone>,<Controlled Zone Name>,<Equip List Name>,<Control List Name>,<Zone Node Name>,<Return Air Node Name>,<# Inlet Nodes>,<# Exhaust Nodes>
! <Controlled Zone Inlet>,<Inlet Node Count>,<Controlled Zone Name>,<Supply Air Inlet Node Name>,<SD Sys:Cooling/Heating [DD:Cooling] Inlet Node Name>,<DD Sys:Heating Inlet Node Name>
! <Controlled Zone Exhaust>,<Exhaust Node Count>,<Controlled Zone Name>,<Exhaust Air Node Name>
 Controlled Zone,WEST ZONE,ZONE1EQUIPMENT,,ZONE 1 NODE,ZONE 1 OUTLET NODE,0,0
 Controlled Zone,EAST ZONE,ZONE2EQUIPMENT,,ZONE 2 NODE,ZONE 2 OUTLET NODE,0,0
 Controlled Zone,NORTH ZONE,ZONE3EQUIPMENT,,ZONE 3 NODE,ZONE 3 OUTLET NODE,0,0
! ===============================================================
! <#Zone Equipment Lists>,<Number of Zone Equipment Lists>
 #Zone Equipment Lists,3
! <Zone Equipment List>,<Zone Equipment List Count>,<Zone Equipment List Name>,<Zone Name>,<Number of Components>
! <Zone Equipment Component>,<Component Count>,<Component Type>,<Component Name>,<Zone Name>,<Heating Priority>,<Cooling Priority>
 Zone Equipment List,1,ZONE1EQUIPMENT,WEST ZONE,1
   Zone Equipment Component,1,ZONEHVAC:LOWTEMPERATURERADIANT:CONSTANTFLOW,WEST ZONE RADIANT FLOOR,WEST ZONE,1,1
 Zone Equipment List,2,ZONE2EQUIPMENT,EAST ZONE,1
   Zone Equipment Component,1,ZONEHVAC:LOWTEMPERATURERADIANT:CONSTANTFLOW,EAST ZONE RADIANT FLOOR,EAST ZONE,1,1
 Zone Equipment List,3,ZONE3EQUIPMENT,NORTH ZONE,1
   Zone Equipment Component,1,ZONEHVAC:LOWTEMPERATURERADIANT:CONSTANTFLOW,NORTH ZONE RADIANT FLOOR,NORTH ZONE,1,1
! ===============================================================
! <#AirLoopHVACs>,<Number of AirLoopHVACs>
 #AirLoopHVACs,0
! <AirLoopHVAC>,<Air Loop Name>,<# Return Nodes>,<# Supply Nodes>,<# Zones Cooled>,<# Zones Heated>,<Outdoor Air Used>
! <AirLoop Return Connections>,<Connection Count>,<AirLoopHVAC Name>,<Zn Eqp Return Node #>,<Zn Eqp Return Node Name>,<AirLoop Return Node #>,<Air Loop Return Node Name>
! <AirLoop Supply Connections>,<Connection Count>,<AirLoopHVAC Name>,<Zn Eqp Supply Node #>,<Zn Eqp Supply Node Name>,<AirLoop Supply Node #>,<Air Loop Supply Node Name>
! <Cooled Zone Info>,<Cooled Zone Count>,<Cooled Zone Name>,<Cooled Zone Inlet Node #>,<Cooled Zone Inlet Node Name>,<AirLoopHVAC Name>
! <Heated Zone Info>,<Heated Zone Count>,<Heated Zone Name>,<Heated Zone Inlet Node #>,<Heated Zone Inlet Node Name>,<AirLoopHVAC Name>
! <Outdoor Air Connections>,<OA Inlet Node #>,<OA Return Air Inlet Node Name>,<OA Outlet Node #>,<OA Mixed Air Outlet Node Name>,<AirLoopHVAC Name>
! <AirLoopHVAC Connector>,<Connector Type>,<Connector Name>,<Loop Name>,<Loop Type>,<Number of Inlets/Outlets>
! <AirLoopHVAC Connector Branches>,<Connector Node Count>,<Connector Type>,<Connector Name>,<Inlet Branch>,<Outlet Branch>,<Loop Name>,<Loop Type>
! <AirLoopHVAC Connector Nodes>,<Connector Node Count>,<Connector Type>,<Connector Name>,<Inlet Node>,<Outlet Node>,<Loop Name>,<Loop Type>
! ===============================================================
! <#Parent Node Connections>,<Number of Parent Node Connections>
 #Parent Node Connections,77
! <Parent Node Connection>,<Node Name>,<Node ObjectType>,<Node ObjectName>,<Node ConnectionType>,<Node FluidStream>
 Parent Node Connection,CW DEMAND INLET NODE,BRANCH,COOLING DEMAND INLET,Inlet,1
 Parent Node Connection,CW DEMAND ENTRANCE PIPE OUTLET NODE,BRANCH,COOLING DEMAND INLET,Outlet,1
 Parent Node Connection,ZONE 1 COOLING WATER INLET NODE,BRANCH,ZONE 1 COOLING BRANCH,Inlet,1
 Parent Node Connection,ZONE 1 COOLING WATER OUTLET NODE,BRANCH,ZONE 1 COOLING BRANCH,Outlet,1
 Parent Node Connection,ZONE 2 COOLING WATER INLET NODE,BRANCH,ZONE 2 COOLING BRANCH,Inlet,1
 Parent Node Connection,ZONE 2 COOLING WATER OUTLET NODE,BRANCH,ZONE 2 COOLING BRANCH,Outlet,1
 Parent Node Connection,ZONE 3 COOLING WATER INLET NODE,BRANCH,ZONE 3 COOLING BRANCH,Inlet,1
 Parent Node Connection,ZONE 3 COOLING WATER OUTLET NODE,BRANCH,ZONE 3 COOLING BRANCH,Outlet,1
 Parent Node Connection,CW DEMAND BYPASS INLET NODE,BRANCH,DEMAND BYPASS BRANCH,Inlet,1
 Parent Node Connection,CW DEMAND BYPASS OUTLET NODE,BRANCH,DEMAND BYPASS BRANCH,Outlet,1
 Parent Node Connection,CW DEMAND EXIT PIPE INLET NODE,BRANCH,COOLING DEMAND OUTLET,Inlet,1
 Parent Node Connection,CW DEMAND OUTLET NODE,BRANCH,COOLING DEMAND OUTLET,Outlet,1
 Parent Node Connection,SUPPLY SIDE EXIT PIPE INLET NODE,BRANCH,COOLING SUPPLY OUTLET,Inlet,1
 Parent Node Connection,CW SUPPLY OUTLET NODE,BRANCH,COOLING SUPPLY OUTLET,Outlet,1
 Parent Node Connection,CW SUPPLY INLET NODE,BRANCH,CW PUMP BRANCH,Inlet,1
 Parent Node Connection,CW PUMP OUTLET NODE,BRANCH,CW PUMP BRANCH,Outlet,1
 Parent Node Connection,LITTLE CHILLER INLET NODE,BRANCH,LITTLE CHILLER BRANCH,Inlet,1
 Parent Node Connection,LITTLE CHILLER OUTLET NODE,BRANCH,LITTLE CHILLER BRANCH,Outlet,1
 Parent Node Connection,BIG CHILLER INLET NODE,BRANCH,BIG CHILLER BRANCH,Inlet,1
 Parent Node Connection,BIG CHILLER OUTLET NODE,BRANCH,BIG CHILLER BRANCH,Outlet,1
 Parent Node Connection,PURCHASED COOLING INLET NODE,BRANCH,PURCHASED COOLING BRANCH,Inlet,1
 Parent Node Connection,PURCHASED COOLING OUTLET NODE,BRANCH,PURCHASED COOLING BRANCH,Outlet,1
 Parent Node Connection,CW SUPPLY BYPASS INLET NODE,BRANCH,SUPPLY BYPASS BRANCH,Inlet,1
 Parent Node Connection,CW SUPPLY BYPASS OUTLET NODE,BRANCH,SUPPLY BYPASS BRANCH,Outlet,1
 Parent Node Connection,CONDENSER SUPPLY INLET NODE,BRANCH,CONDENSER SUPPLY INLET BRANCH,Inlet,1
 Parent Node Connection,CONDENSER PUMP OUTLET NODE,BRANCH,CONDENSER SUPPLY INLET BRANCH,Outlet,1
 Parent Node Connection,CONDENSER TOWER INLET NODE,BRANCH,CONDENSER SUPPLY TOWER BRANCH,Inlet,1
 Parent Node Connection,CONDENSER TOWER OUTLET NODE,BRANCH,CONDENSER SUPPLY TOWER BRANCH,Outlet,1
 Parent Node Connection,COND SUPPLY BYPASS INLET NODE,BRANCH,CONDENSER SUPPLY BYPASS BRANCH,Inlet,1
 Parent Node Connection,COND SUPPLY BYPASS OUTLET NODE,BRANCH,CONDENSER SUPPLY BYPASS BRANCH,Outlet,1
 Parent Node Connection,CONDENSER SUPPLY EXIT PIPE INLET NODE,BRANCH,CONDENSER SUPPLY OUTLET BRANCH,Inlet,1
 Parent Node Connection,CONDENSER SUPPLY OUTLET NODE,BRANCH,CONDENSER SUPPLY OUTLET BRANCH,Outlet,1
 Parent Node Connection,CONDENSER DEMAND INLET NODE,BRANCH,CONDENSER DEMAND INLET BRANCH,Inlet,1
 Parent Node Connection,CONDENSER DEMAND ENTRANCE PIPE OUTLET NODE,BRANCH,CONDENSER DEMAND INLET BRANCH,Outlet,1
 Parent Node Connection,LITTLE CHILLER CONDENSER INLET NODE,BRANCH,LITTLE CHILLER CONDENSER BRANCH,Inlet,1
 Parent Node Connection,LITTLE CHILLER CONDENSER OUTLET NODE,BRANCH,LITTLE CHILLER CONDENSER BRANCH,Outlet,1
 Parent Node Connection,BIG CHILLER CONDENSER INLET NODE,BRANCH,BIG CHILLER CONDENSER BRANCH,Inlet,1
 Parent Node Connection,BIG CHILLER CONDENSER OUTLET NODE,BRANCH,BIG CHILLER CONDENSER BRANCH,Outlet,1
 Parent Node Connection,COND DEMAND BYPASS INLET NODE,BRANCH,CONDENSER DEMAND BYPASS BRANCH,Inlet,1
 Parent Node Connection,COND DEMAND BYPASS OUTLET NODE,BRANCH,CONDENSER DEMAND BYPASS BRANCH,Outlet,1
 Parent Node Connection,CONDENSER DEMAND EXIT PIPE INLET NODE,BRANCH,CONDENSER DEMAND OUTLET BRANCH,Inlet,1
 Parent Node Connection,CONDENSER DEMAND OUTLET NODE,BRANCH,CONDENSER DEMAND OUTLET BRANCH,Outlet,1
 Parent Node Connection,HW SUPPLY INLET NODE,BRANCH,HEATING SUPPLY INLET BRANCH,Inlet,1
 Parent Node Connection,HW PUMP OUTLET NODE,BRANCH,HEATING SUPPLY INLET BRANCH,Outlet,1
 Parent Node Connection,PURCHASED HEAT INLET NODE,BRANCH,HEATING PURCHASED HOT WATER BRANCH,Inlet,1
 Parent Node Connection,PURCHASED HEAT OUTLET NODE,BRANCH,HEATING PURCHASED HOT WATER BRANCH,Outlet,1
 Parent Node Connection,HEATING SUPPLY BYPASS INLET NODE,BRANCH,HEATING SUPPLY BYPASS BRANCH,Inlet,1
 Parent Node Connection,HEATING SUPPLY BYPASS OUTLET NODE,BRANCH,HEATING SUPPLY BYPASS BRANCH,Outlet,1
 Parent Node Connection,HEATING SUPPLY EXIT PIPE INLET NODE,BRANCH,HEATING SUPPLY OUTLET BRANCH,Inlet,1
 Parent Node Connection,HW SUPPLY OUTLET NODE,BRANCH,HEATING SUPPLY OUTLET BRANCH,Outlet,1
 Parent Node Connection,HW DEMAND INLET NODE,BRANCH,REHEAT INLET BRANCH,Inlet,1
 Parent Node Connection,HW DEMAND ENTRANCE PIPE OUTLET NODE,BRANCH,REHEAT INLET BRANCH,Outlet,1
 Parent Node Connection,HW DEMAND EXIT PIPE INLET NODE,BRANCH,REHEAT OUTLET BRANCH,Inlet,1
 Parent Node Connection,HW DEMAND OUTLET NODE,BRANCH,REHEAT OUTLET BRANCH,Outlet,1
 Parent Node Connection,WEST ZONE RADIANT WATER INLET NODE,BRANCH,ZONE 1 RADIANT BRANCH,Inlet,1
 Parent Node Connection,WEST ZONE RADIANT WATER OUTLET NODE,BRANCH,ZONE 1 RADIANT BRANCH,Outlet,1
 Parent Node Connection,EAST ZONE RADIANT WATER INLET NODE,BRANCH,ZONE 2 RADIANT BRANCH,Inlet,1
 Parent Node Connection,EAST ZONE RADIANT WATER OUTLET NODE,BRANCH,ZONE 2 RADIANT BRANCH,Outlet,1
 Parent Node Connection,NORTH ZONE RADIANT WATER INLET NODE,BRANCH,ZONE 3 RADIANT BRANCH,Inlet,1
 Parent Node Connection,NORTH ZONE RADIANT WATER OUTLET NODE,BRANCH,ZONE 3 RADIANT BRANCH,Outlet,1
 Parent Node Connection,REHEAT BYPASS INLET NODE,BRANCH,REHEAT BYPASS BRANCH,Inlet,1
 Parent Node Connection,REHEAT BYPASS OUTLET NODE,BRANCH,REHEAT BYPASS BRANCH,Outlet,1
 Parent Node Connection,CW SUPPLY INLET NODE,PLANTLOOP,CHILLED WATER LOOP,Inlet,1
 Parent Node Connection,CW SUPPLY OUTLET NODE,PLANTLOOP,CHILLED WATER LOOP,Outlet,1
 Parent Node Connection,CW DEMAND INLET NODE,PLANTLOOP,CHILLED WATER LOOP,Inlet,1
 Parent Node Connection,CW DEMAND OUTLET NODE,PLANTLOOP,CHILLED WATER LOOP,Outlet,1
 Parent Node Connection,CW SUPPLY OUTLET NODE,PLANTLOOP,CHILLED WATER LOOP,Sensor,1
 Parent Node Connection,HW SUPPLY INLET NODE,PLANTLOOP,HOT WATER LOOP,Inlet,1
 Parent Node Connection,HW SUPPLY OUTLET NODE,PLANTLOOP,HOT WATER LOOP,Outlet,1
 Parent Node Connection,HW DEMAND INLET NODE,PLANTLOOP,HOT WATER LOOP,Inlet,1
 Parent Node Connection,HW DEMAND OUTLET NODE,PLANTLOOP,HOT WATER LOOP,Outlet,1
 Parent Node Connection,HW SUPPLY OUTLET NODE,PLANTLOOP,HOT WATER LOOP,Sensor,1
 Parent Node Connection,CONDENSER SUPPLY INLET NODE,CONDENSERLOOP,CHILLED WATER CONDENSER LOOP,Inlet,1
 Parent Node Connection,CONDENSER SUPPLY OUTLET NODE,CONDENSERLOOP,CHILLED WATER CONDENSER LOOP,Outlet,1
 Parent Node Connection,CONDENSER DEMAND INLET NODE,CONDENSERLOOP,CHILLED WATER CONDENSER LOOP,Inlet,1
 Parent Node Connection,CONDENSER DEMAND OUTLET NODE,CONDENSERLOOP,CHILLED WATER CONDENSER LOOP,Outlet,1
 Parent Node Connection,CONDENSER SUPPLY OUTLET NODE,CONDENSERLOOP,CHILLED WATER CONDENSER LOOP,Sensor,1
! ===============================================================
! <#Non-Parent Node Connections>,<Number of Non-Parent Node Connections>
 #Non-Parent Node Connections,123
! <Non-Parent Node Connection>,<Node Name>,<Node ObjectType>,<Node ObjectName>,<Node ConnectionType>,<Node FluidStream>
 Non-Parent Node Connection,CW SUPPLY OUTLET NODE,SETPOINTMANAGER:SCHEDULED,CHILLED WATER LOOP SETPOINT MANAGER,Setpoint,1
 Non-Parent Node Connection,BIG CHILLER OUTLET NODE,SETPOINTMANAGER:SCHEDULED,BIG CHILLER SETPOINT MANAGER,Setpoint,1
 Non-Parent Node Connection,LITTLE CHILLER OUTLET NODE,SETPOINTMANAGER:SCHEDULED,LITTLE CHILLER SETPOINT MANAGER,Setpoint,1
 Non-Parent Node Connection,HW SUPPLY OUTLET NODE,SETPOINTMANAGER:SCHEDULED,HOT WATER LOOP SETPOINT MANAGER,Setpoint,1
 Non-Parent Node Connection,CONDENSER SUPPLY OUTLET NODE,SETPOINTMANAGER:FOLLOWOUTDOORAIRTEMPERATURE,MYCONDENSERCONTROL,Setpoint,1
 Non-Parent Node Connection,CW DEMAND ENTRANCE PIPE OUTLET NODE,CONNECTOR:SPLITTER,CW DEMAND SPLITTER,Inlet,1
 Non-Parent Node Connection,ZONE 1 COOLING WATER INLET NODE,CONNECTOR:SPLITTER,CW DEMAND SPLITTER,Outlet,1
 Non-Parent Node Connection,ZONE 2 COOLING WATER INLET NODE,CONNECTOR:SPLITTER,CW DEMAND SPLITTER,Outlet,1
 Non-Parent Node Connection,ZONE 3 COOLING WATER INLET NODE,CONNECTOR:SPLITTER,CW DEMAND SPLITTER,Outlet,1
 Non-Parent Node Connection,CW DEMAND BYPASS INLET NODE,CONNECTOR:SPLITTER,CW DEMAND SPLITTER,Outlet,1
 Non-Parent Node Connection,CW DEMAND EXIT PIPE INLET NODE,CONNECTOR:MIXER,CW DEMAND MIXER,Outlet,1
 Non-Parent Node Connection,ZONE 1 COOLING WATER OUTLET NODE,CONNECTOR:MIXER,CW DEMAND MIXER,Inlet,1
 Non-Parent Node Connection,ZONE 2 COOLING WATER OUTLET NODE,CONNECTOR:MIXER,CW DEMAND MIXER,Inlet,1
 Non-Parent Node Connection,ZONE 3 COOLING WATER OUTLET NODE,CONNECTOR:MIXER,CW DEMAND MIXER,Inlet,1
 Non-Parent Node Connection,CW DEMAND BYPASS OUTLET NODE,CONNECTOR:MIXER,CW DEMAND MIXER,Inlet,1
 Non-Parent Node Connection,CW PUMP OUTLET NODE,CONNECTOR:SPLITTER,CW LOOP SPLITTER,Inlet,1
 Non-Parent Node Connection,LITTLE CHILLER INLET NODE,CONNECTOR:SPLITTER,CW LOOP SPLITTER,Outlet,1
 Non-Parent Node Connection,BIG CHILLER INLET NODE,CONNECTOR:SPLITTER,CW LOOP SPLITTER,Outlet,1
 Non-Parent Node Connection,PURCHASED COOLING INLET NODE,CONNECTOR:SPLITTER,CW LOOP SPLITTER,Outlet,1
 Non-Parent Node Connection,CW SUPPLY BYPASS INLET NODE,CONNECTOR:SPLITTER,CW LOOP SPLITTER,Outlet,1
 Non-Parent Node Connection,SUPPLY SIDE EXIT PIPE INLET NODE,CONNECTOR:MIXER,CW LOOP MIXER,Outlet,1
 Non-Parent Node Connection,LITTLE CHILLER OUTLET NODE,CONNECTOR:MIXER,CW LOOP MIXER,Inlet,1
 Non-Parent Node Connection,BIG CHILLER OUTLET NODE,CONNECTOR:MIXER,CW LOOP MIXER,Inlet,1
 Non-Parent Node Connection,PURCHASED COOLING OUTLET NODE,CONNECTOR:MIXER,CW LOOP MIXER,Inlet,1
 Non-Parent Node Connection,CW SUPPLY BYPASS OUTLET NODE,CONNECTOR:MIXER,CW LOOP MIXER,Inlet,1
 Non-Parent Node Connection,HW DEMAND ENTRANCE PIPE OUTLET NODE,CONNECTOR:SPLITTER,REHEAT SPLITTER,Inlet,1
 Non-Parent Node Connection,WEST ZONE RADIANT WATER INLET NODE,CONNECTOR:SPLITTER,REHEAT SPLITTER,Outlet,1
 Non-Parent Node Connection,EAST ZONE RADIANT WATER INLET NODE,CONNECTOR:SPLITTER,REHEAT SPLITTER,Outlet,1
 Non-Parent Node Connection,NORTH ZONE RADIANT WATER INLET NODE,CONNECTOR:SPLITTER,REHEAT SPLITTER,Outlet,1
 Non-Parent Node Connection,REHEAT BYPASS INLET NODE,CONNECTOR:SPLITTER,REHEAT SPLITTER,Outlet,1
 Non-Parent Node Connection,HW DEMAND EXIT PIPE INLET NODE,CONNECTOR:MIXER,REHEAT MIXER,Outlet,1
 Non-Parent Node Connection,WEST ZONE RADIANT WATER OUTLET NODE,CONNECTOR:MIXER,REHEAT MIXER,Inlet,1
 Non-Parent Node Connection,EAST ZONE RADIANT WATER OUTLET NODE,CONNECTOR:MIXER,REHEAT MIXER,Inlet,1
 Non-Parent Node Connection,NORTH ZONE RADIANT WATER OUTLET NODE,CONNECTOR:MIXER,REHEAT MIXER,Inlet,1
 Non-Parent Node Connection,REHEAT BYPASS OUTLET NODE,CONNECTOR:MIXER,REHEAT MIXER,Inlet,1
 Non-Parent Node Connection,HW PUMP OUTLET NODE,CONNECTOR:SPLITTER,HEATING SUPPLY SPLITTER,Inlet,1
 Non-Parent Node Connection,PURCHASED HEAT INLET NODE,CONNECTOR:SPLITTER,HEATING SUPPLY SPLITTER,Outlet,1
 Non-Parent Node Connection,HEATING SUPPLY BYPASS INLET NODE,CONNECTOR:SPLITTER,HEATING SUPPLY SPLITTER,Outlet,1
 Non-Parent Node Connection,HEATING SUPPLY EXIT PIPE INLET NODE,CONNECTOR:MIXER,HEATING SUPPLY MIXER,Outlet,1
 Non-Parent Node Connection,PURCHASED HEAT OUTLET NODE,CONNECTOR:MIXER,HEATING SUPPLY MIXER,Inlet,1
 Non-Parent Node Connection,HEATING SUPPLY BYPASS OUTLET NODE,CONNECTOR:MIXER,HEATING SUPPLY MIXER,Inlet,1
 Non-Parent Node Connection,CONDENSER DEMAND ENTRANCE PIPE OUTLET NODE,CONNECTOR:SPLITTER,CONDENSER DEMAND SPLITTER,Inlet,1
 Non-Parent Node Connection,BIG CHILLER CONDENSER INLET NODE,CONNECTOR:SPLITTER,CONDENSER DEMAND SPLITTER,Outlet,1
 Non-Parent Node Connection,LITTLE CHILLER CONDENSER INLET NODE,CONNECTOR:SPLITTER,CONDENSER DEMAND SPLITTER,Outlet,1
 Non-Parent Node Connection,COND DEMAND BYPASS INLET NODE,CONNECTOR:SPLITTER,CONDENSER DEMAND SPLITTER,Outlet,1
 Non-Parent Node Connection,CONDENSER DEMAND EXIT PIPE INLET NODE,CONNECTOR:MIXER,CONDENSER DEMAND MIXER,Outlet,1
 Non-Parent Node Connection,BIG CHILLER CONDENSER OUTLET NODE,CONNECTOR:MIXER,CONDENSER DEMAND MIXER,Inlet,1
 Non-Parent Node Connection,LITTLE CHILLER CONDENSER OUTLET NODE,CONNECTOR:MIXER,CONDENSER DEMAND MIXER,Inlet,1
 Non-Parent Node Connection,COND DEMAND BYPASS OUTLET NODE,CONNECTOR:MIXER,CONDENSER DEMAND MIXER,Inlet,1
 Non-Parent Node Connection,CONDENSER PUMP OUTLET NODE,CONNECTOR:SPLITTER,CONDENSER SUPPLY SPLITTER,Inlet,1
 Non-Parent Node Connection,CONDENSER TOWER INLET NODE,CONNECTOR:SPLITTER,CONDENSER SUPPLY SPLITTER,Outlet,1
 Non-Parent Node Connection,COND SUPPLY BYPASS INLET NODE,CONNECTOR:SPLITTER,CONDENSER SUPPLY SPLITTER,Outlet,1
 Non-Parent Node Connection,CONDENSER SUPPLY EXIT PIPE INLET NODE,CONNECTOR:MIXER,CONDENSER SUPPLY MIXER,Outlet,1
 Non-Parent Node Connection,CONDENSER TOWER OUTLET NODE,CONNECTOR:MIXER,CONDENSER SUPPLY MIXER,Inlet,1
 Non-Parent Node Connection,COND SUPPLY BYPASS OUTLET NODE,CONNECTOR:MIXER,CONDENSER SUPPLY MIXER,Inlet,1
 Non-Parent Node Connection,ZONE 1 NODE,ZONEHVAC:EQUIPMENTCONNECTIONS,WEST ZONE,ZoneNode,1
 Non-Parent Node Connection,ZONE 1 OUTLET NODE,ZONEHVAC:EQUIPMENTCONNECTIONS,WEST ZONE,ZoneReturn,1
 Non-Parent Node Connection,ZONE 2 NODE,ZONEHVAC:EQUIPMENTCONNECTIONS,EAST ZONE,ZoneNode,1
 Non-Parent Node Connection,ZONE 2 OUTLET NODE,ZONEHVAC:EQUIPMENTCONNECTIONS,EAST ZONE,ZoneReturn,1
 Non-Parent Node Connection,ZONE 3 NODE,ZONEHVAC:EQUIPMENTCONNECTIONS,NORTH ZONE,ZoneNode,1
 Non-Parent Node Connection,ZONE 3 OUTLET NODE,ZONEHVAC:EQUIPMENTCONNECTIONS,NORTH ZONE,ZoneReturn,1
 Non-Parent Node Connection,WEST ZONE RADIANT WATER INLET NODE,ZONEHVAC:LOWTEMPERATURERADIANT:CONSTANTFLOW,WEST ZONE RADIANT FLOOR,Inlet,1
 Non-Parent Node Connection,WEST ZONE RADIANT WATER OUTLET NODE,ZONEHVAC:LOWTEMPERATURERADIANT:CONSTANTFLOW,WEST ZONE RADIANT FLOOR,Outlet,1
 Non-Parent Node Connection,ZONE 1 COOLING WATER INLET NODE,ZONEHVAC:LOWTEMPERATURERADIANT:CONSTANTFLOW,WEST ZONE RADIANT FLOOR,Inlet,2
 Non-Parent Node Connection,ZONE 1 COOLING WATER OUTLET NODE,ZONEHVAC:LOWTEMPERATURERADIANT:CONSTANTFLOW,WEST ZONE RADIANT FLOOR,Outlet,2
 Non-Parent Node Connection,EAST ZONE RADIANT WATER INLET NODE,ZONEHVAC:LOWTEMPERATURERADIANT:CONSTANTFLOW,EAST ZONE RADIANT FLOOR,Inlet,1
 Non-Parent Node Connection,EAST ZONE RADIANT WATER OUTLET NODE,ZONEHVAC:LOWTEMPERATURERADIANT:CONSTANTFLOW,EAST ZONE RADIANT FLOOR,Outlet,1
 Non-Parent Node Connection,ZONE 2 COOLING WATER INLET NODE,ZONEHVAC:LOWTEMPERATURERADIANT:CONSTANTFLOW,EAST ZONE RADIANT FLOOR,Inlet,2
 Non-Parent Node Connection,ZONE 2 COOLING WATER OUTLET NODE,ZONEHVAC:LOWTEMPERATURERADIANT:CONSTANTFLOW,EAST ZONE RADIANT FLOOR,Outlet,2
 Non-Parent Node Connection,NORTH ZONE RADIANT WATER INLET NODE,ZONEHVAC:LOWTEMPERATURERADIANT:CONSTANTFLOW,NORTH ZONE RADIANT FLOOR,Inlet,1
 Non-Parent Node Connection,NORTH ZONE RADIANT WATER OUTLET NODE,ZONEHVAC:LOWTEMPERATURERADIANT:CONSTANTFLOW,NORTH ZONE RADIANT FLOOR,Outlet,1
 Non-Parent Node Connection,ZONE 3 COOLING WATER INLET NODE,ZONEHVAC:LOWTEMPERATURERADIANT:CONSTANTFLOW,NORTH ZONE RADIANT FLOOR,Inlet,2
 Non-Parent Node Connection,ZONE 3 COOLING WATER OUTLET NODE,ZONEHVAC:LOWTEMPERATURERADIANT:CONSTANTFLOW,NORTH ZONE RADIANT FLOOR,Outlet,2
 Non-Parent Node Connection,CW DEMAND INLET NODE,PIPE:ADIABATIC,DEMAND SIDE INLET PIPE,Inlet,1
 Non-Parent Node Connection,CW DEMAND ENTRANCE PIPE OUTLET NODE,PIPE:ADIABATIC,DEMAND SIDE INLET PIPE,Outlet,1
 Non-Parent Node Connection,CW DEMAND BYPASS INLET NODE,PIPE:ADIABATIC,DEMAND SIDE BYPASS,Inlet,1
 Non-Parent Node Connection,CW DEMAND BYPASS OUTLET NODE,PIPE:ADIABATIC,DEMAND SIDE BYPASS,Outlet,1
 Non-Parent Node Connection,CW DEMAND EXIT PIPE INLET NODE,PIPE:ADIABATIC,CW DEMAND SIDE OUTLET PIPE,Inlet,1
 Non-Parent Node Connection,CW DEMAND OUTLET NODE,PIPE:ADIABATIC,CW DEMAND SIDE OUTLET PIPE,Outlet,1
 Non-Parent Node Connection,SUPPLY SIDE EXIT PIPE INLET NODE,PIPE:ADIABATIC,SUPPLY SIDE OUTLET PIPE,Inlet,1
 Non-Parent Node Connection,CW SUPPLY OUTLET NODE,PIPE:ADIABATIC,SUPPLY SIDE OUTLET PIPE,Outlet,1
 Non-Parent Node Connection,CW SUPPLY BYPASS INLET NODE,PIPE:ADIABATIC,SUPPLY SIDE BYPASS,Inlet,1
 Non-Parent Node Connection,CW SUPPLY BYPASS OUTLET NODE,PIPE:ADIABATIC,SUPPLY SIDE BYPASS,Outlet,1
 Non-Parent Node Connection,COND SUPPLY BYPASS INLET NODE,PIPE:ADIABATIC,CONDENSER SUPPLY SIDE BYPASS,Inlet,1
 Non-Parent Node Connection,COND SUPPLY BYPASS OUTLET NODE,PIPE:ADIABATIC,CONDENSER SUPPLY SIDE BYPASS,Outlet,1
 Non-Parent Node Connection,CONDENSER SUPPLY EXIT PIPE INLET NODE,PIPE:ADIABATIC,CONDENSER SUPPLY OUTLET,Inlet,1
 Non-Parent Node Connection,CONDENSER SUPPLY OUTLET NODE,PIPE:ADIABATIC,CONDENSER SUPPLY OUTLET,Outlet,1
 Non-Parent Node Connection,CONDENSER DEMAND INLET NODE,PIPE:ADIABATIC,CONDENSER DEMAND INLET PIPE,Inlet,1
 Non-Parent Node Connection,CONDENSER DEMAND ENTRANCE PIPE OUTLET NODE,PIPE:ADIABATIC,CONDENSER DEMAND INLET PIPE,Outlet,1
 Non-Parent Node Connection,COND DEMAND BYPASS INLET NODE,PIPE:ADIABATIC,CONDENSER DEMAND SIDE BYPASS,Inlet,1
 Non-Parent Node Connection,COND DEMAND BYPASS OUTLET NODE,PIPE:ADIABATIC,CONDENSER DEMAND SIDE BYPASS,Outlet,1
 Non-Parent Node Connection,CONDENSER DEMAND EXIT PIPE INLET NODE,PIPE:ADIABATIC,CONDENSER DEMAND OUTLET PIPE,Inlet,1
 Non-Parent Node Connection,CONDENSER DEMAND OUTLET NODE,PIPE:ADIABATIC,CONDENSER DEMAND OUTLET PIPE,Outlet,1
 Non-Parent Node Connection,HEATING SUPPLY BYPASS INLET NODE,PIPE:ADIABATIC,HEATING SUPPLY SIDE BYPASS,Inlet,1
 Non-Parent Node Connection,HEATING SUPPLY BYPASS OUTLET NODE,PIPE:ADIABATIC,HEATING SUPPLY SIDE BYPASS,Outlet,1
 Non-Parent Node Connection,HEATING SUPPLY EXIT PIPE INLET NODE,PIPE:ADIABATIC,HEATING SUPPLY OUTLET,Inlet,1
 Non-Parent Node Connection,HW SUPPLY OUTLET NODE,PIPE:ADIABATIC,HEATING SUPPLY OUTLET,Outlet,1
 Non-Parent Node Connection,HW DEMAND INLET NODE,PIPE:ADIABATIC,REHEAT INLET PIPE,Inlet,1
 Non-Parent Node Connection,HW DEMAND ENTRANCE PIPE OUTLET NODE,PIPE:ADIABATIC,REHEAT INLET PIPE,Outlet,1
 Non-Parent Node Connection,HW DEMAND EXIT PIPE INLET NODE,PIPE:ADIABATIC,REHEAT OUTLET PIPE,Inlet,1
 Non-Parent Node Connection,HW DEMAND OUTLET NODE,PIPE:ADIABATIC,REHEAT OUTLET PIPE,Outlet,1
 Non-Parent Node Connection,REHEAT BYPASS INLET NODE,PIPE:ADIABATIC,REHEAT BYPASS,Inlet,1
 Non-Parent Node Connection,REHEAT BYPASS OUTLET NODE,PIPE:ADIABATIC,REHEAT BYPASS,Outlet,1
 Non-Parent Node Connection,LITTLE CHILLER INLET NODE,CHILLER:CONSTANTCOP,LITTLE CHILLER,Inlet,1
 Non-Parent Node Connection,LITTLE CHILLER OUTLET NODE,CHILLER:CONSTANTCOP,LITTLE CHILLER,Outlet,1
 Non-Parent Node Connection,LITTLE CHILLER CONDENSER INLET NODE,CHILLER:CONSTANTCOP,LITTLE CHILLER,Inlet,2
 Non-Parent Node Connection,LITTLE CHILLER CONDENSER OUTLET NODE,CHILLER:CONSTANTCOP,LITTLE CHILLER,Outlet,2
 Non-Parent Node Connection,BIG CHILLER INLET NODE,CHILLER:ELECTRIC,BIG CHILLER,Inlet,1
 Non-Parent Node Connection,BIG CHILLER OUTLET NODE,CHILLER:ELECTRIC,BIG CHILLER,Outlet,1
 Non-Parent Node Connection,BIG CHILLER CONDENSER INLET NODE,CHILLER:ELECTRIC,BIG CHILLER,Inlet,2
 Non-Parent Node Connection,BIG CHILLER CONDENSER OUTLET NODE,CHILLER:ELECTRIC,BIG CHILLER,Outlet,2
 Non-Parent Node Connection,PURCHASED HEAT INLET NODE,DISTRICTHEATING,PURCHASED HEATING,Inlet,1
 Non-Parent Node Connection,PURCHASED HEAT OUTLET NODE,DISTRICTHEATING,PURCHASED HEATING,Outlet,1
 Non-Parent Node Connection,PURCHASED COOLING INLET NODE,DISTRICTCOOLING,PURCHASED COOLING,Inlet,1
 Non-Parent Node Connection,PURCHASED COOLING OUTLET NODE,DISTRICTCOOLING,PURCHASED COOLING,Outlet,1
 Non-Parent Node Connection,CONDENSER TOWER INLET NODE,COOLINGTOWER:SINGLESPEED,BIG TOWER,Inlet,1
 Non-Parent Node Connection,CONDENSER TOWER OUTLET NODE,COOLINGTOWER:SINGLESPEED,BIG TOWER,Outlet,1
 Non-Parent Node Connection,CW SUPPLY INLET NODE,PUMP:VARIABLESPEED,CIRC PUMP,Inlet,1
 Non-Parent Node Connection,CW PUMP OUTLET NODE,PUMP:VARIABLESPEED,CIRC PUMP,Outlet,1
 Non-Parent Node Connection,CONDENSER SUPPLY INLET NODE,PUMP:VARIABLESPEED,COND CIRC PUMP,Inlet,1
 Non-Parent Node Connection,CONDENSER PUMP OUTLET NODE,PUMP:VARIABLESPEED,COND CIRC PUMP,Outlet,1
 Non-Parent Node Connection,HW SUPPLY INLET NODE,PUMP:VARIABLESPEED,HW CIRC PUMP,Inlet,1
 Non-Parent Node Connection,HW PUMP OUTLET NODE,PUMP:VARIABLESPEED,HW CIRC PUMP,Outlet,1
