Program Version,EnergyPlus, Version 8.2.1-27b6d52898, YMD=2014.10.07 20:48,IDD_Version 8.2.1
Var Type (reported time step),Var Report Type,Variable Name [Units]
Zone,Meter,Electricity:Facility [J]
Zone,Meter,Electricity:Building [J]
Zone,Meter,Electricity:Zone:EAST ZONE [J]
Zone,Meter,InteriorLights:Electricity [J]
Zone,Meter,InteriorLights:Electricity:Zone:EAST ZONE [J]
Zone,Meter,GeneralLights:InteriorLights:Electricity [J]
Zone,Meter,Electricity:Zone:NORTH ZONE [J]
Zone,Meter,InteriorLights:Electricity:Zone:NORTH ZONE [J]
Zone,Meter,Electricity:Zone:WEST ZONE [J]
Zone,Meter,InteriorEquipment:Electricity [J]
Zone,Meter,InteriorEquipment:Electricity:Zone:WEST ZONE [J]
Zone,Meter,General:InteriorEquipment:Electricity [J]
Zone,Meter,InteriorEquipment:Electricity:Zone:EAST ZONE [J]
Zone,Meter,InteriorEquipment:Electricity:Zone:NORTH ZONE [J]
Zone,Meter,EnergyTransfer:Facility [J]
Zone,Meter,EnergyTransfer:Building [J]
Zone,Meter,EnergyTransfer:Zone:WEST ZONE [J]
Zone,Meter,Heating:EnergyTransfer [J]
Zone,Meter,Heating:EnergyTransfer:Zone:WEST ZONE [J]
Zone,Meter,Cooling:EnergyTransfer [J]
Zone,Meter,Cooling:EnergyTransfer:Zone:WEST ZONE [J]
Zone,Meter,EnergyTransfer:Zone:EAST ZONE [J]
Zone,Meter,Heating:EnergyTransfer:Zone:EAST ZONE [J]
Zone,Meter,Cooling:EnergyTransfer:Zone:EAST ZONE [J]
Zone,Meter,EnergyTransfer:Zone:NORTH ZONE [J]
Zone,Meter,Heating:EnergyTransfer:Zone:NORTH ZONE [J]
Zone,Meter,Cooling:EnergyTransfer:Zone:NORTH ZONE [J]
Zone,Meter,EnergyTransfer:HVAC [J]
Zone,Meter,HeatingCoils:EnergyTransfer [J]
Zone,Meter,PlantLoopHeatingDemand:Facility [J]
Zone,Meter,PlantLoopHeatingDemand:HVAC [J]
Zone,Meter,HeatingCoils:PlantLoopHeatingDemand [J]
Zone,Meter,CoolingCoils:EnergyTransfer [J]
Zone,Meter,PlantLoopCoolingDemand:Facility [J]
Zone,Meter,PlantLoopCoolingDemand:HVAC [J]
Zone,Meter,CoolingCoils:PlantLoopCoolingDemand [J]
Zone,Meter,Electricity:Plant [J]
Zone,Meter,Pumps:Electricity [J]
Zone,Meter,ElectricityPurchased:Facility [J]
Zone,Meter,ElectricityPurchased:Plant [J]
Zone,Meter,Cogeneration:ElectricityPurchased [J]
Zone,Meter,ElectricitySurplusSold:Facility [J]
Zone,Meter,ElectricitySurplusSold:Plant [J]
Zone,Meter,Cogeneration:ElectricitySurplusSold [J]
Zone,Meter,ElectricityNet:Facility [J]
Zone,Meter,ElectricityNet:Plant [J]
Zone,Meter,Cogeneration:ElectricityNet [J]
Zone,Meter,Cooling:Electricity [J]
Zone,Meter,EnergyTransfer:Plant [J]
Zone,Meter,Chillers:EnergyTransfer [J]
Zone,Meter,HeatRejection:EnergyTransfer [J]
Zone,Meter,DistrictHeating:Facility [J]
Zone,Meter,DistrictHeating:Plant [J]
Zone,Meter,Heating:DistrictHeating [J]
Zone,Meter,DistrictCooling:Facility [J]
Zone,Meter,DistrictCooling:Plant [J]
Zone,Meter,Cooling:DistrictCooling [J]
Zone,Meter,HeatRejection:Electricity [J]
Zone,Meter,Water:Facility [m3]
Zone,Meter,Water:Plant [m3]
Zone,Meter,HeatRejection:Water [m3]
Zone,Meter,MainsWater:Facility [m3]
Zone,Meter,MainsWater:Plant [m3]
Zone,Meter,HeatRejection:MainsWater [m3]
Zone,Meter,Carbon Equivalent:Facility [kg]
Zone,Meter,CarbonEquivalentEmissions:Carbon Equivalent [kg]
